
 ANSYS Academic Research                           


 *------------------------------------------------------------------*
 |                                                                  |
 |   W E L C O M E   T O   T H E   A N S Y S (R)  P R O G R A M     |
 |                                                                  |
 *------------------------------------------------------------------*




 ***************************************************************
 *            ANSYS Release 16.2     LEGAL NOTICES             *
 ***************************************************************
 *                                                             *
 * Copyright 2015 SAS IP, Inc.  All rights reserved.           *
 * Unauthorized use, distribution or duplication is            *
 * prohibited.                                                 *
 *                                                             *
 * Ansys is a registered trademark of ANSYS, Inc. or its       *
 * subsidiaries in the United States or other countries.       *
 * See the ANSYS, Inc. online documentation or the ANSYS, Inc. *
 * documentation CD or online help for the complete Legal      *
 * Notice.                                                     *
 *                                                             *
 ***************************************************************
 *                                                             *
 * THIS ANSYS SOFTWARE PRODUCT AND PROGRAM DOCUMENTATION       *
 * INCLUDE TRADE SECRETS AND CONFIDENTIAL AND PROPRIETARY      *
 * PRODUCTS OF ANSYS, INC., ITS SUBSIDIARIES, OR LICENSORS.    *
 * The software products and documentation are furnished by    *
 * ANSYS, Inc. or its subsidiaries under a software license    *
 * agreement that contains provisions concerning               *
 * non-disclosure, copying, length and nature of use,          *
 * compliance with exporting laws, warranties, disclaimers,    *
 * limitations of liability, and remedies, and other           *
 * provisions.  The software products and documentation may be *
 * used, disclosed, transferred, or copied only in accordance  *
 * with the terms and conditions of that software license      *
 * agreement.                                                  *
 *                                                             *
 * ANSYS, Inc. is a UL registered                              *
 * ISO 9001:2008 company.                                      *
 *                                                             *
 ***************************************************************
 *                                                             *
 * This product is subject to U.S. laws governing export and   *
 * re-export.                                                  *
 *                                                             *
 * For U.S. Government users, except as specifically granted   *
 * by the ANSYS, Inc. software license agreement, the use,     *
 * duplication, or disclosure by the United States Government  *
 * is subject to restrictions stated in the ANSYS, Inc.        *
 * software license agreement and FAR 12.212 (for non-DOD      *
 * licenses).                                                  *
 *                                                             *
 ***************************************************************

 Release 16.2
     
 Point Releases and Patches installed:   
     
 ANSYS, Inc. Products Release 16.2   
 ANSYS Mechanical Products Release 16.2  
 ANSYS Customization Files for User Programmable Features Release 16.2   
 ANSYS Autodyn Release 16.2  
 ANSYS CFX (includes ANSYS CFD-Post) Release 16.2
 ANSYS Fluent (includes ANSYS CFD-Post) Release 16.2 
 ANSYS, Inc. License Manager Release 16.2


          *****  ANSYS COMMAND LINE ARGUMENTS  *****
  BATCH MODE REQUESTED (-b)    = NOLIST
  INPUT FILE COPY MODE (-c)    = COPY
  SHARED MEMORY PARALLEL REQUESTED
    SINGLE PROCESS WITH   2 THREADS REQUESTED
    TOTAL OF     2 CORES REQUESTED
  DESIGNXPLORER REQUESTED
  START-UP FILE MODE           = NOREAD
  STOP FILE MODE               = NOREAD

 RELEASE= Release 16.2         BUILD= 16.2      UP20150629   VERSION=WINDOWS x64 
 CURRENT JOBNAME=file  11:37:48  APR 11, 2020 CP=      1.094


 PARAMETER _DS_PROGRESS =     999.0000000    

 /INPUT FILE= ds.dat  LINE=       0



 DO NOT WRITE ELEMENT RESULTS INTO DATABASE

 *GET  _WALLSTRT  FROM  ACTI  ITEM=TIME WALL  VALUE=  11.6302778    

 TITLE= 
 Spring_Analysis--Transient (B5)                                               

  ACT Extensions:

 SET PARAMETER DIMENSIONS ON  _WB_PROJECTSCRATCH_DIR
  TYPE=STRI  DIMENSIONS=      248        1        1

 PARAMETER _WB_PROJECTSCRATCH_DIR(1) = X:\Flexible_Pendulum\Ansys_Structural_Analysis\_ProjectScratch\ScrA457\

 SET PARAMETER DIMENSIONS ON  _WB_SOLVERFILES_DIR
  TYPE=STRI  DIMENSIONS=      248        1        1

 PARAMETER _WB_SOLVERFILES_DIR(1) = X:\Flexible_Pendulum\Ansys_Structural_Analysis\Spring_Analysis_files\dp0\SYS\MECH\

 SET PARAMETER DIMENSIONS ON  _WB_USERFILES_DIR
  TYPE=STRI  DIMENSIONS=      248        1        1

 PARAMETER _WB_USERFILES_DIR(1) = X:\Flexible_Pendulum\Ansys_Structural_Analysis\Spring_Analysis_files\user_files\
 --- Data in consistent NMM units. See Solving Units in the help system for more

 MPA UNITS SPECIFIED FOR INTERNAL    
  LENGTH      = MILLIMETERS (mm)
  MASS        = TONNE (Mg)
  TIME        = SECONDS (sec)
  TEMPERATURE = CELSIUS (C)
  TOFFSET     = 273.0
  FORCE       = NEWTON (N)
  HEAT        = MILLIJOULES (mJ)

 INPUT  UNITS ARE ALSO SET TO MPA 

 *** ANSYS - ENGINEERING ANALYSIS SYSTEM  RELEASE Release 16.2     16.2     ***
 ANSYS Academic Research                           
 00308503  VERSION=WINDOWS x64   11:37:49  APR 11, 2020 CP=      1.203

 Spring_Analysis--Transient (B5)                                               



          ***** ANSYS ANALYSIS DEFINITION (PREP7) *****
 *********** Nodes for the whole assembly ***********
 *********** Elements for Body 1 "Solid" ***********
 *********** Send User Defined Coordinate System(s) ***********
 *********** Set Reference Temperature ***********
 *********** Send Materials ***********
 *********** Fixed Supports ***********


 ***** ROUTINE COMPLETED *****  CP =         1.641


 --- Number of total nodes = 50590
 --- Number of contact elements = 0
 --- Number of spring elements = 0
 --- Number of bearing elements = 0
 --- Number of solid elements = 26345
 --- Number of total elements = 26345

 *GET  _WALLBSOL  FROM  ACTI  ITEM=TIME WALL  VALUE=  11.6302778    
 ****************************************************************************
 *************************    SOLUTION       ********************************
 ****************************************************************************

 *****  ANSYS SOLUTION ROUTINE  *****


 PERFORM A TRANSIENT ANALYSIS
  THIS WILL BE A NEW ANALYSIS

 LARGE DEFORMATION ANALYSIS

 STEP BOUNDARY CONDITION KEY= 1

 USE PRECONDITIONED CONJUGATE GRADIENT SOLVER
  CONVERGENCE TOLERANCE = 1.00000E-08
  MAXIMUM ITERATION     = NumNode*DofPerNode*  1.0000    

 CONTACT INFORMATION PRINTOUT LEVEL       1

 PERFORM A FULL TRANSIENT ANALYSIS
  USING HHT ALGORITHM

 USE AMPLITUDE DECAY FACTOR FOR SECOND ORDER TRANSIENT PARAMETERS
   GAMMA= 0.1000      (ALPHA= 0.3025      DELTA= 0.6000      ALPHAF= 0.1000      ALPHAM=  0.000    )

 NLDIAG: Nonlinear diagnostics CONT option is set to ON. 
         Writing frequency : each ITERATION.

 DEFINE RESTART CONTROL FOR LOADSTEP LAST
 AT FREQUENCY OF LAST AND NUMBER FOR OVERWRITE IS    0

 DELETE RESTART FILES OF ENDSTEP
 ****************************************************
 ******************* SOLVE FOR LS 1 ****************
 *********** Create Acceleration ***********

 SET PARAMETER DIMENSIONS ON  _ACELX TYPE=TABL  DIMENSIONS=     1     1     1
  TIME                        

 PARAMETER _ACELX(1,0,1) =     1.000000000    

 PARAMETER _ACELX(1,1,1) =     0.000000000    

 SET PARAMETER DIMENSIONS ON  _ACELY TYPE=TABL  DIMENSIONS=     1     1     1
  TIME                        

 PARAMETER _ACELY(1,0,1) =     1.000000000    

 PARAMETER _ACELY(1,1,1) =     0.000000000    

 SET PARAMETER DIMENSIONS ON  _ACELZ TYPE=TABL  DIMENSIONS=     1     1     1
  TIME                        

 PARAMETER _ACELZ(1,0,1) =     1.000000000    

 PARAMETER _ACELZ(1,1,1) =     9806.650000    
 
 ACELX IS SET ACCORDING TO TABLE PARAMETER = _ACELX  
 ACELY IS SET ACCORDING TO TABLE PARAMETER = _ACELY  
 ACELZ IS SET ACCORDING TO TABLE PARAMETER = _ACELZ  

 PRINTOUT RESUMED BY /GOP

 USE AUTOMATIC TIME STEPPING THIS LOAD STEP

 USE INITIAL TIME STEP SIZE OF 0.5000000E-02 FOR ALL  DEGREES OF FREEDOM
 FOR AUTOMATIC TIME STEPPING:
   USE 0.5000000E-02 AS THE MINIMUM TIME STEP SIZE
   USE 0.5000000E-02 AS THE MAXIMUM TIME STEP SIZE

 TIME=  5.0000    

 INCLUDE TRANSIENT EFFECTS FOR  ALL DEGREES OF FREEDOM THIS LOAD STEP

 ERASE THE CURRENT DATABASE OUTPUT CONTROL TABLE.


 WRITE ALL  ITEMS TO THE DATABASE WITH A FREQUENCY OF NONE
   FOR ALL APPLICABLE ENTITIES

 WRITE NSOL ITEMS TO THE DATABASE WITH A FREQUENCY OF ALL 
   FOR ALL APPLICABLE ENTITIES

 WRITE RSOL ITEMS TO THE DATABASE WITH A FREQUENCY OF ALL 
   FOR ALL APPLICABLE ENTITIES

 WRITE STRS ITEMS TO THE DATABASE WITH A FREQUENCY OF ALL 
   FOR ALL APPLICABLE ENTITIES

 WRITE EPEL ITEMS TO THE DATABASE WITH A FREQUENCY OF ALL 
   FOR ALL APPLICABLE ENTITIES

 WRITE EPPL ITEMS TO THE DATABASE WITH A FREQUENCY OF ALL 
   FOR ALL APPLICABLE ENTITIES

 WRITE V    ITEMS TO THE DATABASE WITH A FREQUENCY OF ALL 
   FOR ALL APPLICABLE ENTITIES

 WRITE A    ITEMS TO THE DATABASE WITH A FREQUENCY OF ALL 
   FOR ALL APPLICABLE ENTITIES

 NONLINEAR STABILIZATION CONTROL:
 KEY=OFF 


 *GET  ANSINTER_  FROM  ACTI  ITEM=INT        VALUE=  0.00000000    

 *IF  ANSINTER_                         ( =   0.00000     )  NE  
      0                                 ( =   0.00000     )  THEN    

 *ENDIF

 *****  ANSYS SOLVE    COMMAND  *****

 *** WARNING ***                         CP =       1.641   TIME= 11:37:49
 Element shape checking is currently inactive.  Issue SHPP,ON or         
 SHPP,WARN to reactivate, if desired.                                    

 *** NOTE ***                            CP =       1.891   TIME= 11:37:49
 The model data was checked and warning messages were found.             
  Please review output or errors file (                                  
 X:\Flexible_Pendulum\Ansys_Structural_Analysis\_ProjectScratch\ScrA457\ 
 \file.err ) for these warning messages.                                 

 *** SELECTION OF ELEMENT TECHNOLOGIES FOR APPLICABLE ELEMENTS ***
      --- GIVE SUGGESTIONS AND RESET THE KEY OPTIONS ---

 ELEMENT TYPE    1 IS SOLID187. IT IS NOT ASSOCIATED WITH FULLY INCOMPRESSIBLE
 HYPERELASTIC MATERIALS. NO SUGGESTION IS AVAILABLE AND NO RESETTING IS NEEDED.



 *** ANSYS - ENGINEERING ANALYSIS SYSTEM  RELEASE Release 16.2     16.2     ***
 ANSYS Academic Research                           
 00308503  VERSION=WINDOWS x64   11:37:49  APR 11, 2020 CP=      1.891

 Spring_Analysis--Transient (B5)                                               



                       S O L U T I O N   O P T I O N S

   PROBLEM DIMENSIONALITY. . . . . . . . . . . . .3-D                  
   DEGREES OF FREEDOM. . . . . . UX   UY   UZ  
   ANALYSIS TYPE . . . . . . . . . . . . . . . . .TRANSIENT            
      SOLUTION METHOD. . . . . . . . . . . . . . .FULL              
   OFFSET TEMPERATURE FROM ABSOLUTE ZERO . . . . .  273.15    
   NONLINEAR GEOMETRIC EFFECTS . . . . . . . . . .ON
   EQUATION SOLVER OPTION. . . . . . . . . . . . .PCG                
      TOLERANCE. . . . . . . . . . . . . . . . . . 1.00000E-08
   NEWTON-RAPHSON OPTION . . . . . . . . . . . . .PROGRAM CHOSEN   
   GLOBALLY ASSEMBLED MATRIX . . . . . . . . . . .SYMMETRIC  

 *** NOTE ***                            CP =       1.922   TIME= 11:37:49
 This nonlinear analysis defaults to using the full Newton-Raphson       
 solution procedure.  This can be modified using the NROPT command.      

 *** NOTE ***                            CP =       1.922   TIME= 11:37:49
 The conditions for direct assembly have been met.  No .emat or .erot    
 files will be produced.                                                 

                      L O A D   S T E P   O P T I O N S

   LOAD STEP NUMBER. . . . . . . . . . . . . . . .     1
   TIME AT END OF THE LOAD STEP. . . . . . . . . .  5.0000    
   AUTOMATIC TIME STEPPING . . . . . . . . . . . .    ON
      STARTING TIME STEP SIZE. . . . . . . . . . . 0.50000E-02
      MINIMUM TIME STEP SIZE . . . . . . . . . . . 0.50000E-02
      MAXIMUM TIME STEP SIZE . . . . . . . . . . . 0.50000E-02
   MAXIMUM NUMBER OF EQUILIBRIUM ITERATIONS. . . .    15
   STEP CHANGE BOUNDARY CONDITIONS . . . . . . . .   YES
   STRESS-STIFFENING . . . . . . . . . . . . . . .    ON
   TRANSIENT (INERTIA) EFFECTS
      STRUCTURAL DOFS. . . . . . . . . . . . . . .    ON
   TRANSIENT INTEGRATION PARAMETERS
      GAMMA. . . . . . . . . . . . . . . . . . . . 0.10000    
      ALPHA. . . . . . . . . . . . . . . . . . . . 0.30250    
      DELTA. . . . . . . . . . . . . . . . . . . . 0.60000    
      USING HHT TIME INTEGRATION
      ALPHAF . . . . . . . . . . . . . . . . . . . 0.10000    
      ALPHAM . . . . . . . . . . . . . . . . . . .  0.0000    
   TERMINATE ANALYSIS IF NOT CONVERGED . . . . . .YES (EXIT)  
   CONVERGENCE CONTROLS. . . . . . . . . . . . . .USE DEFAULTS
   INERTIA LOADS                        X           Y           Z 
      ACEL . . . . . . . . . . . ._ACELX      _ACELY      _ACELZ      
   PRINT OUTPUT CONTROLS . . . . . . . . . . . . .NO PRINTOUT
   DATABASE OUTPUT CONTROLS
      ITEM     FREQUENCY   COMPONENT
       ALL       NONE               
      NSOL        ALL               
      RSOL        ALL               
      STRS        ALL               
      EPEL        ALL               
      EPPL        ALL               
      V           ALL               
      A           ALL               


 SOLUTION MONITORING INFO IS WRITTEN TO FILE= file.mntr                                                                                                                                                                                                                                                           


 *** NOTE ***                            CP =       2.609   TIME= 11:37:50
 The PCG solver has automatically set the level of difficulty for this   
 model to 1.                                                             


                         ***********  PRECISE MASS SUMMARY  ***********

   TOTAL RIGID BODY MASS MATRIX ABOUT ORIGIN
               Translational mass               |   Coupled translational/rotational mass
        0.92630E-03    0.0000        0.0000     |     0.0000       0.66045E-01  -0.10876E-03
         0.0000       0.92630E-03    0.0000     |   -0.66045E-01    0.0000      -0.10819E-04
         0.0000        0.0000       0.92630E-03 |    0.10876E-03   0.10819E-04    0.0000    
     ------------------------------------------ | ------------------------------------------
                                                |         Rotational mass (inertia)
                                                |     7.1455      -0.75927E-05   0.14613E-02
                                                |   -0.75927E-05    7.1406      -0.75150E-02
                                                |    0.14613E-02  -0.75150E-02   0.29962    

   TOTAL MASS = 0.92630E-03
     The mass principal axes coincide with the global Cartesian axes

   CENTER OF MASS (X,Y,Z)=  -0.11680E-01   0.11742        71.300    

   TOTAL INERTIA ABOUT CENTER OF MASS
         2.4364      -0.88631E-05   0.68988E-03
       -0.88631E-05    2.4316       0.23978E-03
        0.68988E-03   0.23978E-03   0.29961    
     The inertia principal axes coincide with the global Cartesian axes


  *** MASS SUMMARY BY ELEMENT TYPE ***

  TYPE      MASS
     1  0.926302E-03

 Range of element maximum matrix coefficients in global coordinates
 Maximum = 15824596 at element 16869.                                    
 Minimum = 26348.4514 at element 18251.                                  

   *** ELEMENT MATRIX FORMULATION TIMES
  TYPE    NUMBER   ENAME      TOTAL CP  AVE CP

     1     26345  SOLID187      4.938   0.000187
 Time at end of element matrix formulation CP = 5.34375.                 

 ALL CURRENT ANSYS DATA WRITTEN TO FILE NAME= file.rdb
  FOR POSSIBLE RESUME FROM THIS POINT
     FORCE CONVERGENCE VALUE  = 0.7978E-01  CRITERION= 0.4071E-03
 curEqn=   6762  totEqn=   6762 Job CP sec=     10.012
      Factor Done= 100% Factor Wall sec=      0.000 rate=       0.0 Mflops
 Iteration=   145 Ratio=  0.310782     Limit=  1.000000E-08 Wall=     1.1
 Iteration=   285 Ratio=  8.428004E-04 Limit=  1.000000E-08 Wall=     2.2
 Iteration=   405 Ratio=  2.993543E-06 Limit=  1.000000E-08 Wall=     3.2

 PRECONDITIONED SOLVER CP TIME      =     4.446
 PRECONDITIONED SOLVER ELAPSED TIME =     4.446
     DISP CONVERGENCE VALUE   = 0.7221E-01  CRITERION= 0.3684E-02
    EQUIL ITER   1 COMPLETED.  NEW TRIANG MATRIX.  MAX DOF INC= -0.7221E-01
     FORCE CONVERGENCE VALUE  = 0.3360      CRITERION= 0.7822E-02
     DISP CONVERGENCE VALUE   = 0.1296E-05  CRITERION= 0.3759E-02 <<< CONVERGED
    EQUIL ITER   2 COMPLETED.  NEW TRIANG MATRIX.  MAX DOF INC=  0.1296E-05
     FORCE CONVERGENCE VALUE  = 0.5559E-07  CRITERION= 0.7982E-02 <<< CONVERGED
    >>> SOLUTION CONVERGED AFTER EQUILIBRIUM ITERATION   2

   *** ELEMENT RESULT CALCULATION TIMES
  TYPE    NUMBER   ENAME      TOTAL CP  AVE CP

     1     26345  SOLID187      4.438   0.000168

   *** NODAL LOAD CALCULATION TIMES
  TYPE    NUMBER   ENAME      TOTAL CP  AVE CP

     1     26345  SOLID187      0.219   0.000008
 *** LOAD STEP     1   SUBSTEP     1  COMPLETED.    CUM ITER =      2
 *** TIME =  0.500000E-02     TIME INC =  0.500000E-02
 *** RESPONSE FREQ =  19.87       PERIOD=  0.5032E-01  PTS/CYC =  10.    
 *** AUTO STEP TIME:  NEXT TIME INC = 0.50000E-02  UNCHANGED

     FORCE CONVERGENCE VALUE  = 0.1658      CRITERION= 0.7666E-02
     DISP CONVERGENCE VALUE   = 0.2494      CRITERION= 0.1272E-01
    EQUIL ITER   1 COMPLETED.  NEW TRIANG MATRIX.  MAX DOF INC= -0.2494    
     FORCE CONVERGENCE VALUE  =  1.557      CRITERION= 0.2037E-01
     DISP CONVERGENCE VALUE   = 0.2683E-02  CRITERION= 0.1307E-01 <<< CONVERGED
    EQUIL ITER   2 COMPLETED.  NEW TRIANG MATRIX.  MAX DOF INC= -0.2683E-02
     FORCE CONVERGENCE VALUE  = 0.8105E-03  CRITERION= 0.2110E-01 <<< CONVERGED
    >>> SOLUTION CONVERGED AFTER EQUILIBRIUM ITERATION   2
 *** LOAD STEP     1   SUBSTEP     2  COMPLETED.    CUM ITER =      4
 *** TIME =  0.100000E-01     TIME INC =  0.500000E-02
 *** RESPONSE FREQ =  17.66       PERIOD=  0.5661E-01  PTS/CYC =  11.    
 *** AUTO STEP TIME:  NEXT TIME INC = 0.50000E-02  UNCHANGED

     FORCE CONVERGENCE VALUE  = 0.2752      CRITERION= 0.2167E-01
     DISP CONVERGENCE VALUE   = 0.4219      CRITERION= 0.2153E-01
    EQUIL ITER   1 COMPLETED.  NEW TRIANG MATRIX.  MAX DOF INC= -0.4219    
     FORCE CONVERGENCE VALUE  =  3.272      CRITERION= 0.3569E-01
     DISP CONVERGENCE VALUE   = 0.3452E-02  CRITERION= 0.2214E-01 <<< CONVERGED
    EQUIL ITER   2 COMPLETED.  NEW TRIANG MATRIX.  MAX DOF INC= -0.3452E-02
     FORCE CONVERGENCE VALUE  = 0.3949E-03  CRITERION= 0.3642E-01 <<< CONVERGED
    >>> SOLUTION CONVERGED AFTER EQUILIBRIUM ITERATION   2
 *** LOAD STEP     1   SUBSTEP     3  COMPLETED.    CUM ITER =      6
 *** TIME =  0.150000E-01     TIME INC =  0.500000E-02
 *** RESPONSE FREQ =  17.10       PERIOD=  0.5848E-01  PTS/CYC =  12.    
 *** AUTO STEP TIME:  NEXT TIME INC = 0.50000E-02  UNCHANGED

     FORCE CONVERGENCE VALUE  = 0.3128      CRITERION= 0.3646E-01
     DISP CONVERGENCE VALUE   = 0.4827      CRITERION= 0.2463E-01
    EQUIL ITER   1 COMPLETED.  NEW TRIANG MATRIX.  MAX DOF INC= -0.4827    
     FORCE CONVERGENCE VALUE  =  8.855      CRITERION= 0.5194E-01
     DISP CONVERGENCE VALUE   = 0.4231E-02  CRITERION= 0.2535E-01 <<< CONVERGED
    EQUIL ITER   2 COMPLETED.  NEW TRIANG MATRIX.  MAX DOF INC= -0.4231E-02
     FORCE CONVERGENCE VALUE  = 0.5574E-03  CRITERION= 0.5303E-01 <<< CONVERGED
    >>> SOLUTION CONVERGED AFTER EQUILIBRIUM ITERATION   2
 *** LOAD STEP     1   SUBSTEP     4  COMPLETED.    CUM ITER =      8
 *** TIME =  0.200000E-01     TIME INC =  0.500000E-02
 *** RESPONSE FREQ =  17.22       PERIOD=  0.5807E-01  PTS/CYC =  12.    
 *** AUTO STEP TIME:  NEXT TIME INC = 0.50000E-02  UNCHANGED

     FORCE CONVERGENCE VALUE  = 0.2604      CRITERION= 0.5253E-01
     DISP CONVERGENCE VALUE   = 0.4044      CRITERION= 0.2484E-01
    EQUIL ITER   1 COMPLETED.  NEW TRIANG MATRIX.  MAX DOF INC= -0.4044    
     FORCE CONVERGENCE VALUE  =  16.87      CRITERION= 0.6832E-01
     DISP CONVERGENCE VALUE   = 0.3244E-02  CRITERION= 0.2535E-01 <<< CONVERGED
    EQUIL ITER   2 COMPLETED.  NEW TRIANG MATRIX.  MAX DOF INC= -0.3244E-02
     FORCE CONVERGENCE VALUE  = 0.1132E-02  CRITERION= 0.6987E-01 <<< CONVERGED
    >>> SOLUTION CONVERGED AFTER EQUILIBRIUM ITERATION   2
 *** LOAD STEP     1   SUBSTEP     5  COMPLETED.    CUM ITER =     10
 *** TIME =  0.250000E-01     TIME INC =  0.500000E-02
 *** RESPONSE FREQ =  17.09       PERIOD=  0.5850E-01  PTS/CYC =  12.    
 *** AUTO STEP TIME:  NEXT TIME INC = 0.50000E-02  UNCHANGED

     FORCE CONVERGENCE VALUE  = 0.1411      CRITERION= 0.6872E-01
     DISP CONVERGENCE VALUE   = 0.2197      CRITERION= 0.2484E-01
    EQUIL ITER   1 COMPLETED.  NEW TRIANG MATRIX.  MAX DOF INC= -0.2197    
     FORCE CONVERGENCE VALUE  =  16.70      CRITERION= 0.7974E-01
     DISP CONVERGENCE VALUE   = 0.2473E-02  CRITERION= 0.2535E-01 <<< CONVERGED
    EQUIL ITER   2 COMPLETED.  NEW TRIANG MATRIX.  MAX DOF INC= -0.2473E-02
     FORCE CONVERGENCE VALUE  = 0.2064E-02  CRITERION= 0.8154E-01 <<< CONVERGED
    >>> SOLUTION CONVERGED AFTER EQUILIBRIUM ITERATION   2
 *** LOAD STEP     1   SUBSTEP     6  COMPLETED.    CUM ITER =     12
 *** TIME =  0.300000E-01     TIME INC =  0.500000E-02
 *** RESPONSE FREQ =  17.62       PERIOD=  0.5674E-01  PTS/CYC =  11.    
 *** AUTO STEP TIME:  NEXT TIME INC = 0.50000E-02  UNCHANGED

     FORCE CONVERGENCE VALUE  = 0.1732E-01  CRITERION= 0.7938E-01
     DISP CONVERGENCE VALUE   = 0.2925E-01  CRITERION= 0.2484E-01
    EQUIL ITER   1 COMPLETED.  NEW TRIANG MATRIX.  MAX DOF INC= -0.2925E-01
     FORCE CONVERGENCE VALUE  =  6.982      CRITERION= 0.7992E-01
     DISP CONVERGENCE VALUE   = 0.4575E-03  CRITERION= 0.2535E-01 <<< CONVERGED
    EQUIL ITER   2 COMPLETED.  NEW TRIANG MATRIX.  MAX DOF INC=  0.4575E-03
     FORCE CONVERGENCE VALUE  = 0.2079E-02  CRITERION= 0.8153E-01 <<< CONVERGED
    >>> SOLUTION CONVERGED AFTER EQUILIBRIUM ITERATION   2
 *** LOAD STEP     1   SUBSTEP     7  COMPLETED.    CUM ITER =     14
 *** TIME =  0.350000E-01     TIME INC =  0.500000E-02
 *** RESPONSE FREQ =  19.08       PERIOD=  0.5241E-01  PTS/CYC =  10.    
 *** AUTO STEP TIME:  NEXT TIME INC = 0.50000E-02  UNCHANGED

     FORCE CONVERGENCE VALUE  = 0.1616      CRITERION= 0.7818E-01
     DISP CONVERGENCE VALUE   = 0.2487      CRITERION= 0.2484E-01
    EQUIL ITER   1 COMPLETED.  NEW TRIANG MATRIX.  MAX DOF INC=  0.2487    
     FORCE CONVERGENCE VALUE  =  3.862      CRITERION= 0.6882E-01
     DISP CONVERGENCE VALUE   = 0.2461E-02  CRITERION= 0.2535E-01 <<< CONVERGED
    EQUIL ITER   2 COMPLETED.  NEW TRIANG MATRIX.  MAX DOF INC=  0.2461E-02
     FORCE CONVERGENCE VALUE  = 0.9841E-03  CRITERION= 0.7003E-01 <<< CONVERGED
    >>> SOLUTION CONVERGED AFTER EQUILIBRIUM ITERATION   2
 *** LOAD STEP     1   SUBSTEP     8  COMPLETED.    CUM ITER =     16
 *** TIME =  0.400000E-01     TIME INC =  0.500000E-02
 *** RESPONSE FREQ =  17.40       PERIOD=  0.5748E-01  PTS/CYC =  11.    
 *** AUTO STEP TIME:  NEXT TIME INC = 0.50000E-02  UNCHANGED

     FORCE CONVERGENCE VALUE  = 0.2728      CRITERION= 0.6604E-01
     DISP CONVERGENCE VALUE   = 0.4302      CRITERION= 0.2484E-01
    EQUIL ITER   1 COMPLETED.  NEW TRIANG MATRIX.  MAX DOF INC=  0.4302    
     FORCE CONVERGENCE VALUE  =  27.87      CRITERION= 0.5282E-01
     DISP CONVERGENCE VALUE   = 0.3475E-02  CRITERION= 0.2535E-01 <<< CONVERGED
    EQUIL ITER   2 COMPLETED.  NEW TRIANG MATRIX.  MAX DOF INC=  0.3475E-02
     FORCE CONVERGENCE VALUE  = 0.1245E-02  CRITERION= 0.5379E-01 <<< CONVERGED
    >>> SOLUTION CONVERGED AFTER EQUILIBRIUM ITERATION   2
 *** LOAD STEP     1   SUBSTEP     9  COMPLETED.    CUM ITER =     18
 *** TIME =  0.450000E-01     TIME INC =  0.500000E-02
 *** RESPONSE FREQ =  17.11       PERIOD=  0.5846E-01  PTS/CYC =  12.    
 *** AUTO STEP TIME:  NEXT TIME INC = 0.50000E-02  UNCHANGED

     FORCE CONVERGENCE VALUE  = 0.3102      CRITERION= 0.5006E-01
     DISP CONVERGENCE VALUE   = 0.4967      CRITERION= 0.2534E-01
    EQUIL ITER   1 COMPLETED.  NEW TRIANG MATRIX.  MAX DOF INC=  0.4967    
     FORCE CONVERGENCE VALUE  =  75.49      CRITERION= 0.3626E-01
     DISP CONVERGENCE VALUE   = 0.4215E-02  CRITERION= 0.2608E-01 <<< CONVERGED
    EQUIL ITER   2 COMPLETED.  NEW TRIANG MATRIX.  MAX DOF INC=  0.4215E-02
     FORCE CONVERGENCE VALUE  = 0.2147E-02  CRITERION= 0.3699E-01 <<< CONVERGED
    >>> SOLUTION CONVERGED AFTER EQUILIBRIUM ITERATION   2
 *** LOAD STEP     1   SUBSTEP    10  COMPLETED.    CUM ITER =     20
 *** TIME =  0.500000E-01     TIME INC =  0.500000E-02
 *** RESPONSE FREQ =  17.29       PERIOD=  0.5785E-01  PTS/CYC =  12.    
 *** AUTO STEP TIME:  NEXT TIME INC = 0.50000E-02  UNCHANGED

     FORCE CONVERGENCE VALUE  = 0.2610      CRITERION= 0.3391E-01
     DISP CONVERGENCE VALUE   = 0.4228      CRITERION= 0.2556E-01
    EQUIL ITER   1 COMPLETED.  NEW TRIANG MATRIX.  MAX DOF INC=  0.4228    
     FORCE CONVERGENCE VALUE  =  92.85      CRITERION= 0.1992E-01
     DISP CONVERGENCE VALUE   = 0.3315E-02  CRITERION= 0.2608E-01 <<< CONVERGED
    EQUIL ITER   2 COMPLETED.  NEW TRIANG MATRIX.  MAX DOF INC=  0.3315E-02
     FORCE CONVERGENCE VALUE  = 0.3113E-02  CRITERION= 0.2019E-01 <<< CONVERGED
    >>> SOLUTION CONVERGED AFTER EQUILIBRIUM ITERATION   2
 *** LOAD STEP     1   SUBSTEP    11  COMPLETED.    CUM ITER =     22
 *** TIME =  0.550000E-01     TIME INC =  0.500000E-02
 *** RESPONSE FREQ =  17.37       PERIOD=  0.5756E-01  PTS/CYC =  12.    
 *** AUTO STEP TIME:  NEXT TIME INC = 0.50000E-02  UNCHANGED

     FORCE CONVERGENCE VALUE  = 0.1452      CRITERION= 0.1778E-01
     DISP CONVERGENCE VALUE   = 0.2375      CRITERION= 0.2556E-01
    EQUIL ITER   1 COMPLETED.  NEW TRIANG MATRIX.  MAX DOF INC=  0.2375    
     FORCE CONVERGENCE VALUE  =  53.70      CRITERION= 0.8430E-02
     DISP CONVERGENCE VALUE   = 0.2029E-02  CRITERION= 0.2608E-01 <<< CONVERGED
    EQUIL ITER   2 COMPLETED.  NEW TRIANG MATRIX.  MAX DOF INC=  0.2029E-02
     FORCE CONVERGENCE VALUE  = 0.2624E-02  CRITERION= 0.8421E-02 <<< CONVERGED
    >>> SOLUTION CONVERGED AFTER EQUILIBRIUM ITERATION   2
 *** LOAD STEP     1   SUBSTEP    12  COMPLETED.    CUM ITER =     24
 *** TIME =  0.600000E-01     TIME INC =  0.500000E-02
 *** RESPONSE FREQ =  17.65       PERIOD=  0.5665E-01  PTS/CYC =  11.    
 *** AUTO STEP TIME:  NEXT TIME INC = 0.50000E-02  UNCHANGED

     FORCE CONVERGENCE VALUE  = 0.1231E-01  CRITERION= 0.7030E-02
     DISP CONVERGENCE VALUE   = 0.2601E-01  CRITERION= 0.2556E-01
    EQUIL ITER   1 COMPLETED.  NEW TRIANG MATRIX.  MAX DOF INC= -0.2601E-01
     FORCE CONVERGENCE VALUE  =  7.629      CRITERION= 0.8063E-02
     DISP CONVERGENCE VALUE   = 0.4098E-03  CRITERION= 0.2608E-01 <<< CONVERGED
    EQUIL ITER   2 COMPLETED.  NEW TRIANG MATRIX.  MAX DOF INC= -0.4098E-03
     FORCE CONVERGENCE VALUE  = 0.1322E-02  CRITERION= 0.8268E-02 <<< CONVERGED
    >>> SOLUTION CONVERGED AFTER EQUILIBRIUM ITERATION   2
 *** LOAD STEP     1   SUBSTEP    13  COMPLETED.    CUM ITER =     26
 *** TIME =  0.650000E-01     TIME INC =  0.500000E-02
 *** RESPONSE FREQ =  22.40       PERIOD=  0.4463E-01  PTS/CYC =  8.9    
 *** AUTO STEP TIME:  NEXT TIME INC = 0.50000E-02  UNCHANGED

     FORCE CONVERGENCE VALUE  = 0.1577      CRITERION= 0.8045E-02
     DISP CONVERGENCE VALUE   = 0.2451      CRITERION= 0.2556E-01
    EQUIL ITER   1 COMPLETED.  NEW TRIANG MATRIX.  MAX DOF INC= -0.2451    
     FORCE CONVERGENCE VALUE  =  7.556      CRITERION= 0.1830E-01
     DISP CONVERGENCE VALUE   = 0.2098E-02  CRITERION= 0.2608E-01 <<< CONVERGED
    EQUIL ITER   2 COMPLETED.  NEW TRIANG MATRIX.  MAX DOF INC= -0.2098E-02
     FORCE CONVERGENCE VALUE  = 0.7935E-03  CRITERION= 0.1884E-01 <<< CONVERGED
    >>> SOLUTION CONVERGED AFTER EQUILIBRIUM ITERATION   2
 *** LOAD STEP     1   SUBSTEP    14  COMPLETED.    CUM ITER =     28
 *** TIME =  0.700000E-01     TIME INC =  0.500000E-02
 *** RESPONSE FREQ =  17.26       PERIOD=  0.5793E-01  PTS/CYC =  12.    
 *** AUTO STEP TIME:  NEXT TIME INC = 0.50000E-02  UNCHANGED

     FORCE CONVERGENCE VALUE  = 0.2689      CRITERION= 0.1921E-01
     DISP CONVERGENCE VALUE   = 0.4271      CRITERION= 0.2556E-01
    EQUIL ITER   1 COMPLETED.  NEW TRIANG MATRIX.  MAX DOF INC= -0.4271    
     FORCE CONVERGENCE VALUE  =  54.99      CRITERION= 0.3349E-01
     DISP CONVERGENCE VALUE   = 0.3471E-02  CRITERION= 0.2608E-01 <<< CONVERGED
    EQUIL ITER   2 COMPLETED.  NEW TRIANG MATRIX.  MAX DOF INC= -0.3471E-02
     FORCE CONVERGENCE VALUE  = 0.2758E-02  CRITERION= 0.3425E-01 <<< CONVERGED
    >>> SOLUTION CONVERGED AFTER EQUILIBRIUM ITERATION   2
 *** LOAD STEP     1   SUBSTEP    15  COMPLETED.    CUM ITER =     30
 *** TIME =  0.750000E-01     TIME INC =  0.500000E-02
 *** RESPONSE FREQ =  17.19       PERIOD=  0.5817E-01  PTS/CYC =  12.    
 *** AUTO STEP TIME:  NEXT TIME INC = 0.50000E-02  UNCHANGED

     FORCE CONVERGENCE VALUE  = 0.3084      CRITERION= 0.3442E-01
     DISP CONVERGENCE VALUE   = 0.4924      CRITERION= 0.2556E-01
    EQUIL ITER   1 COMPLETED.  NEW TRIANG MATRIX.  MAX DOF INC= -0.4924    
     FORCE CONVERGENCE VALUE  =  92.32      CRITERION= 0.5047E-01
     DISP CONVERGENCE VALUE   = 0.4143E-02  CRITERION= 0.2608E-01 <<< CONVERGED
    EQUIL ITER   2 COMPLETED.  NEW TRIANG MATRIX.  MAX DOF INC= -0.4143E-02
     FORCE CONVERGENCE VALUE  = 0.3357E-02  CRITERION= 0.5157E-01 <<< CONVERGED
    >>> SOLUTION CONVERGED AFTER EQUILIBRIUM ITERATION   2
 *** LOAD STEP     1   SUBSTEP    16  COMPLETED.    CUM ITER =     32
 *** TIME =  0.800000E-01     TIME INC =  0.500000E-02
 *** RESPONSE FREQ =  17.33       PERIOD=  0.5771E-01  PTS/CYC =  12.    
 *** AUTO STEP TIME:  NEXT TIME INC = 0.50000E-02  UNCHANGED

     FORCE CONVERGENCE VALUE  = 0.2621      CRITERION= 0.5120E-01
     DISP CONVERGENCE VALUE   = 0.4179      CRITERION= 0.2556E-01
    EQUIL ITER   1 COMPLETED.  NEW TRIANG MATRIX.  MAX DOF INC= -0.4179    
     FORCE CONVERGENCE VALUE  =  66.78      CRITERION= 0.6705E-01
     DISP CONVERGENCE VALUE   = 0.3319E-02  CRITERION= 0.2608E-01 <<< CONVERGED
    EQUIL ITER   2 COMPLETED.  NEW TRIANG MATRIX.  MAX DOF INC= -0.3319E-02
     FORCE CONVERGENCE VALUE  = 0.3243E-02  CRITERION= 0.6858E-01 <<< CONVERGED
    >>> SOLUTION CONVERGED AFTER EQUILIBRIUM ITERATION   2
 *** LOAD STEP     1   SUBSTEP    17  COMPLETED.    CUM ITER =     34
 *** TIME =  0.850000E-01     TIME INC =  0.500000E-02
 *** RESPONSE FREQ =  17.24       PERIOD=  0.5799E-01  PTS/CYC =  12.    
 *** AUTO STEP TIME:  NEXT TIME INC = 0.50000E-02  UNCHANGED

     FORCE CONVERGENCE VALUE  = 0.1479      CRITERION= 0.6749E-01
     DISP CONVERGENCE VALUE   = 0.2323      CRITERION= 0.2556E-01
    EQUIL ITER   1 COMPLETED.  NEW TRIANG MATRIX.  MAX DOF INC= -0.2323    
     FORCE CONVERGENCE VALUE  =  15.03      CRITERION= 0.7808E-01
     DISP CONVERGENCE VALUE   = 0.1944E-02  CRITERION= 0.2608E-01 <<< CONVERGED
    EQUIL ITER   2 COMPLETED.  NEW TRIANG MATRIX.  MAX DOF INC= -0.1944E-02
     FORCE CONVERGENCE VALUE  = 0.8847E-03  CRITERION= 0.7980E-01 <<< CONVERGED
    >>> SOLUTION CONVERGED AFTER EQUILIBRIUM ITERATION   2
 *** LOAD STEP     1   SUBSTEP    18  COMPLETED.    CUM ITER =     36
 *** TIME =  0.900000E-01     TIME INC =  0.500000E-02
 *** RESPONSE FREQ =  17.24       PERIOD=  0.5801E-01  PTS/CYC =  12.    
 *** AUTO STEP TIME:  NEXT TIME INC = 0.50000E-02  UNCHANGED

     FORCE CONVERGENCE VALUE  = 0.9256E-02  CRITERION= 0.7766E-01
     DISP CONVERGENCE VALUE   = 0.2017E-01  CRITERION= 0.2556E-01 <<< CONVERGED
    EQUIL ITER   1 COMPLETED.  NEW TRIANG MATRIX.  MAX DOF INC=  0.2017E-01
     FORCE CONVERGENCE VALUE  =  1.937      CRITERION= 0.7870E-01
     DISP CONVERGENCE VALUE   = 0.4020E-03  CRITERION= 0.2608E-01 <<< CONVERGED
    EQUIL ITER   2 COMPLETED.  NEW TRIANG MATRIX.  MAX DOF INC=  0.4020E-03
     FORCE CONVERGENCE VALUE  = 0.1431E-02  CRITERION= 0.8028E-01 <<< CONVERGED
    >>> SOLUTION CONVERGED AFTER EQUILIBRIUM ITERATION   2
 *** LOAD STEP     1   SUBSTEP    19  COMPLETED.    CUM ITER =     38
 *** TIME =  0.950000E-01     TIME INC =  0.500000E-02
 *** RESPONSE FREQ =  30.20       PERIOD=  0.3311E-01  PTS/CYC =  6.6    
 *** AUTO STEP TIME:  NEXT TIME INC = 0.50000E-02  UNCHANGED

     FORCE CONVERGENCE VALUE  = 0.1540      CRITERION= 0.7704E-01
     DISP CONVERGENCE VALUE   = 0.2453      CRITERION= 0.2556E-01
    EQUIL ITER   1 COMPLETED.  NEW TRIANG MATRIX.  MAX DOF INC=  0.2453    
     FORCE CONVERGENCE VALUE  =  29.93      CRITERION= 0.6923E-01
     DISP CONVERGENCE VALUE   = 0.1959E-02  CRITERION= 0.2608E-01 <<< CONVERGED
    EQUIL ITER   2 COMPLETED.  NEW TRIANG MATRIX.  MAX DOF INC=  0.1959E-02
     FORCE CONVERGENCE VALUE  = 0.2790E-02  CRITERION= 0.7051E-01 <<< CONVERGED
    >>> SOLUTION CONVERGED AFTER EQUILIBRIUM ITERATION   2
 *** LOAD STEP     1   SUBSTEP    20  COMPLETED.    CUM ITER =     40
 *** TIME =  0.100000         TIME INC =  0.500000E-02
 *** RESPONSE FREQ =  17.27       PERIOD=  0.5791E-01  PTS/CYC =  12.    
 *** AUTO STEP TIME:  NEXT TIME INC = 0.50000E-02  UNCHANGED

     FORCE CONVERGENCE VALUE  = 0.2660      CRITERION= 0.6668E-01
     DISP CONVERGENCE VALUE   = 0.4196      CRITERION= 0.2556E-01
    EQUIL ITER   1 COMPLETED.  NEW TRIANG MATRIX.  MAX DOF INC=  0.4196    
     FORCE CONVERGENCE VALUE  =  56.60      CRITERION= 0.5409E-01
     DISP CONVERGENCE VALUE   = 0.3438E-02  CRITERION= 0.2608E-01 <<< CONVERGED
    EQUIL ITER   2 COMPLETED.  NEW TRIANG MATRIX.  MAX DOF INC=  0.3438E-02
     FORCE CONVERGENCE VALUE  = 0.3450E-02  CRITERION= 0.5509E-01 <<< CONVERGED
    >>> SOLUTION CONVERGED AFTER EQUILIBRIUM ITERATION   2
 *** LOAD STEP     1   SUBSTEP    21  COMPLETED.    CUM ITER =     42
 *** TIME =  0.105000         TIME INC =  0.500000E-02
 *** RESPONSE FREQ =  17.19       PERIOD=  0.5816E-01  PTS/CYC =  12.    
 *** AUTO STEP TIME:  NEXT TIME INC = 0.50000E-02  UNCHANGED

     FORCE CONVERGENCE VALUE  = 0.3064      CRITERION= 0.5138E-01
     DISP CONVERGENCE VALUE   = 0.4792      CRITERION= 0.2556E-01
    EQUIL ITER   1 COMPLETED.  NEW TRIANG MATRIX.  MAX DOF INC=  0.4792    
     FORCE CONVERGENCE VALUE  =  47.15      CRITERION= 0.3690E-01
     DISP CONVERGENCE VALUE   = 0.4016E-02  CRITERION= 0.2608E-01 <<< CONVERGED
    EQUIL ITER   2 COMPLETED.  NEW TRIANG MATRIX.  MAX DOF INC=  0.4016E-02
     FORCE CONVERGENCE VALUE  = 0.2422E-02  CRITERION= 0.3758E-01 <<< CONVERGED
    >>> SOLUTION CONVERGED AFTER EQUILIBRIUM ITERATION   2
 *** LOAD STEP     1   SUBSTEP    22  COMPLETED.    CUM ITER =     44
 *** TIME =  0.110000         TIME INC =  0.500000E-02
 *** RESPONSE FREQ =  17.15       PERIOD=  0.5832E-01  PTS/CYC =  12.    
 *** AUTO STEP TIME:  NEXT TIME INC = 0.50000E-02  UNCHANGED

     FORCE CONVERGENCE VALUE  = 0.2634      CRITERION= 0.3440E-01
     DISP CONVERGENCE VALUE   = 0.4056      CRITERION= 0.2556E-01
    EQUIL ITER   1 COMPLETED.  NEW TRIANG MATRIX.  MAX DOF INC=  0.4056    
     FORCE CONVERGENCE VALUE  =  15.64      CRITERION= 0.2041E-01
     DISP CONVERGENCE VALUE   = 0.3258E-02  CRITERION= 0.2608E-01 <<< CONVERGED
    EQUIL ITER   2 COMPLETED.  NEW TRIANG MATRIX.  MAX DOF INC=  0.3258E-02
     FORCE CONVERGENCE VALUE  = 0.1310E-02  CRITERION= 0.2068E-01 <<< CONVERGED
    >>> SOLUTION CONVERGED AFTER EQUILIBRIUM ITERATION   2
 *** LOAD STEP     1   SUBSTEP    23  COMPLETED.    CUM ITER =     46
 *** TIME =  0.115000         TIME INC =  0.500000E-02
 *** RESPONSE FREQ =  17.09       PERIOD=  0.5852E-01  PTS/CYC =  12.    
 *** AUTO STEP TIME:  NEXT TIME INC = 0.50000E-02  UNCHANGED

     FORCE CONVERGENCE VALUE  = 0.1519      CRITERION= 0.1826E-01
     DISP CONVERGENCE VALUE   = 0.2345      CRITERION= 0.2556E-01
    EQUIL ITER   1 COMPLETED.  NEW TRIANG MATRIX.  MAX DOF INC=  0.2345    
     FORCE CONVERGENCE VALUE  =  2.896      CRITERION= 0.9615E-02
     DISP CONVERGENCE VALUE   = 0.1817E-02  CRITERION= 0.2608E-01 <<< CONVERGED
    EQUIL ITER   2 COMPLETED.  NEW TRIANG MATRIX.  MAX DOF INC=  0.1817E-02
     FORCE CONVERGENCE VALUE  = 0.5292E-03  CRITERION= 0.9689E-02 <<< CONVERGED
    >>> SOLUTION CONVERGED AFTER EQUILIBRIUM ITERATION   2
 *** LOAD STEP     1   SUBSTEP    24  COMPLETED.    CUM ITER =     48
 *** TIME =  0.120000         TIME INC =  0.500000E-02
 *** RESPONSE FREQ =  17.12       PERIOD=  0.5842E-01  PTS/CYC =  12.    
 *** AUTO STEP TIME:  NEXT TIME INC = 0.50000E-02  UNCHANGED

     FORCE CONVERGENCE VALUE  = 0.1299E-01  CRITERION= 0.8319E-02
     DISP CONVERGENCE VALUE   = 0.3869E-01  CRITERION= 0.2556E-01
    EQUIL ITER   1 COMPLETED.  NEW TRIANG MATRIX.  MAX DOF INC=  0.3869E-01
     FORCE CONVERGENCE VALUE  =  17.04      CRITERION= 0.8936E-02
     DISP CONVERGENCE VALUE   = 0.4534E-03  CRITERION= 0.2608E-01 <<< CONVERGED
    EQUIL ITER   2 COMPLETED.  NEW TRIANG MATRIX.  MAX DOF INC= -0.4534E-03
     FORCE CONVERGENCE VALUE  = 0.2153E-02  CRITERION= 0.9149E-02 <<< CONVERGED
    >>> SOLUTION CONVERGED AFTER EQUILIBRIUM ITERATION   2
 *** LOAD STEP     1   SUBSTEP    25  COMPLETED.    CUM ITER =     50
 *** TIME =  0.125000         TIME INC =  0.500000E-02
 *** RESPONSE FREQ =  22.19       PERIOD=  0.4506E-01  PTS/CYC =  9.0    
 *** AUTO STEP TIME:  NEXT TIME INC = 0.50000E-02  UNCHANGED

     FORCE CONVERGENCE VALUE  = 0.1501      CRITERION= 0.8842E-02
     DISP CONVERGENCE VALUE   = 0.2422      CRITERION= 0.2556E-01
    EQUIL ITER   1 COMPLETED.  NEW TRIANG MATRIX.  MAX DOF INC= -0.2422    
     FORCE CONVERGENCE VALUE  =  33.76      CRITERION= 0.1794E-01
     DISP CONVERGENCE VALUE   = 0.1812E-02  CRITERION= 0.2608E-01 <<< CONVERGED
    EQUIL ITER   2 COMPLETED.  NEW TRIANG MATRIX.  MAX DOF INC= -0.1812E-02
     FORCE CONVERGENCE VALUE  = 0.1306E-02  CRITERION= 0.1841E-01 <<< CONVERGED
    >>> SOLUTION CONVERGED AFTER EQUILIBRIUM ITERATION   2
 *** LOAD STEP     1   SUBSTEP    26  COMPLETED.    CUM ITER =     52
 *** TIME =  0.130000         TIME INC =  0.500000E-02
 *** RESPONSE FREQ =  17.21       PERIOD=  0.5810E-01  PTS/CYC =  12.    
 *** AUTO STEP TIME:  NEXT TIME INC = 0.50000E-02  UNCHANGED

     FORCE CONVERGENCE VALUE  = 0.2625      CRITERION= 0.1867E-01
     DISP CONVERGENCE VALUE   = 0.4139      CRITERION= 0.2556E-01
    EQUIL ITER   1 COMPLETED.  NEW TRIANG MATRIX.  MAX DOF INC= -0.4139    
     FORCE CONVERGENCE VALUE  =  36.55      CRITERION= 0.3294E-01
     DISP CONVERGENCE VALUE   = 0.3288E-02  CRITERION= 0.2608E-01 <<< CONVERGED
    EQUIL ITER   2 COMPLETED.  NEW TRIANG MATRIX.  MAX DOF INC= -0.3288E-02
     FORCE CONVERGENCE VALUE  = 0.1328E-02  CRITERION= 0.3370E-01 <<< CONVERGED
    >>> SOLUTION CONVERGED AFTER EQUILIBRIUM ITERATION   2
 *** LOAD STEP     1   SUBSTEP    27  COMPLETED.    CUM ITER =     54
 *** TIME =  0.135000         TIME INC =  0.500000E-02
 *** RESPONSE FREQ =  17.12       PERIOD=  0.5839E-01  PTS/CYC =  12.    
 *** AUTO STEP TIME:  NEXT TIME INC = 0.50000E-02  UNCHANGED

     FORCE CONVERGENCE VALUE  = 0.3046      CRITERION= 0.3389E-01
     DISP CONVERGENCE VALUE   = 0.4768      CRITERION= 0.2556E-01
    EQUIL ITER   1 COMPLETED.  NEW TRIANG MATRIX.  MAX DOF INC= -0.4768    
     FORCE CONVERGENCE VALUE  =  26.40      CRITERION= 0.5063E-01
     DISP CONVERGENCE VALUE   = 0.3867E-02  CRITERION= 0.2608E-01 <<< CONVERGED
    EQUIL ITER   2 COMPLETED.  NEW TRIANG MATRIX.  MAX DOF INC= -0.3867E-02
     FORCE CONVERGENCE VALUE  = 0.4738E-03  CRITERION= 0.5176E-01 <<< CONVERGED
    >>> SOLUTION CONVERGED AFTER EQUILIBRIUM ITERATION   2
 *** LOAD STEP     1   SUBSTEP    28  COMPLETED.    CUM ITER =     56
 *** TIME =  0.140000         TIME INC =  0.500000E-02
 *** RESPONSE FREQ =  17.10       PERIOD=  0.5847E-01  PTS/CYC =  12.    
 *** AUTO STEP TIME:  NEXT TIME INC = 0.50000E-02  UNCHANGED

     FORCE CONVERGENCE VALUE  = 0.2643      CRITERION= 0.5147E-01
     DISP CONVERGENCE VALUE   = 0.4123      CRITERION= 0.2556E-01
    EQUIL ITER   1 COMPLETED.  NEW TRIANG MATRIX.  MAX DOF INC= -0.4123    
     FORCE CONVERGENCE VALUE  =  13.03      CRITERION= 0.6738E-01
     DISP CONVERGENCE VALUE   = 0.3244E-02  CRITERION= 0.2608E-01 <<< CONVERGED
    EQUIL ITER   2 COMPLETED.  NEW TRIANG MATRIX.  MAX DOF INC= -0.3244E-02
     FORCE CONVERGENCE VALUE  = 0.9702E-03  CRITERION= 0.6890E-01 <<< CONVERGED
    >>> SOLUTION CONVERGED AFTER EQUILIBRIUM ITERATION   2
 *** LOAD STEP     1   SUBSTEP    29  COMPLETED.    CUM ITER =     58
 *** TIME =  0.145000         TIME INC =  0.500000E-02
 *** RESPONSE FREQ =  17.10       PERIOD=  0.5850E-01  PTS/CYC =  12.    
 *** AUTO STEP TIME:  NEXT TIME INC = 0.50000E-02  UNCHANGED

     FORCE CONVERGENCE VALUE  = 0.1546      CRITERION= 0.6780E-01
     DISP CONVERGENCE VALUE   = 0.2411      CRITERION= 0.2556E-01
    EQUIL ITER   1 COMPLETED.  NEW TRIANG MATRIX.  MAX DOF INC= -0.2411    
     FORCE CONVERGENCE VALUE  =  4.064      CRITERION= 0.7819E-01
     DISP CONVERGENCE VALUE   = 0.1826E-02  CRITERION= 0.2608E-01 <<< CONVERGED
    EQUIL ITER   2 COMPLETED.  NEW TRIANG MATRIX.  MAX DOF INC= -0.1826E-02
     FORCE CONVERGENCE VALUE  = 0.2422E-03  CRITERION= 0.7989E-01 <<< CONVERGED
    >>> SOLUTION CONVERGED AFTER EQUILIBRIUM ITERATION   2
 *** LOAD STEP     1   SUBSTEP    30  COMPLETED.    CUM ITER =     60
 *** TIME =  0.150000         TIME INC =  0.500000E-02
 *** RESPONSE FREQ =  17.11       PERIOD=  0.5846E-01  PTS/CYC =  12.    
 *** AUTO STEP TIME:  NEXT TIME INC = 0.50000E-02  UNCHANGED

     FORCE CONVERGENCE VALUE  = 0.7720E-02  CRITERION= 0.7772E-01
     DISP CONVERGENCE VALUE   = 0.1183E-01  CRITERION= 0.2556E-01 <<< CONVERGED
    EQUIL ITER   1 COMPLETED.  NEW TRIANG MATRIX.  MAX DOF INC=  0.1183E-01
     FORCE CONVERGENCE VALUE  =  1.501      CRITERION= 0.7924E-01
     DISP CONVERGENCE VALUE   = 0.3454E-03  CRITERION= 0.2608E-01 <<< CONVERGED
    EQUIL ITER   2 COMPLETED.  NEW TRIANG MATRIX.  MAX DOF INC= -0.3454E-03
     FORCE CONVERGENCE VALUE  = 0.8842E-03  CRITERION= 0.8084E-01 <<< CONVERGED
    >>> SOLUTION CONVERGED AFTER EQUILIBRIUM ITERATION   2
 *** LOAD STEP     1   SUBSTEP    31  COMPLETED.    CUM ITER =     62
 *** TIME =  0.155000         TIME INC =  0.500000E-02
 *** RESPONSE FREQ =  28.02       PERIOD=  0.3569E-01  PTS/CYC =  7.1    
 *** AUTO STEP TIME:  NEXT TIME INC = 0.50000E-02  UNCHANGED

     FORCE CONVERGENCE VALUE  = 0.1460      CRITERION= 0.7763E-01
     DISP CONVERGENCE VALUE   = 0.2226      CRITERION= 0.2556E-01
    EQUIL ITER   1 COMPLETED.  NEW TRIANG MATRIX.  MAX DOF INC=  0.2226    
     FORCE CONVERGENCE VALUE  =  2.762      CRITERION= 0.7077E-01
     DISP CONVERGENCE VALUE   = 0.1771E-02  CRITERION= 0.2608E-01 <<< CONVERGED
    EQUIL ITER   2 COMPLETED.  NEW TRIANG MATRIX.  MAX DOF INC=  0.1771E-02
     FORCE CONVERGENCE VALUE  = 0.2960E-03  CRITERION= 0.7212E-01 <<< CONVERGED
    >>> SOLUTION CONVERGED AFTER EQUILIBRIUM ITERATION   2
 *** LOAD STEP     1   SUBSTEP    32  COMPLETED.    CUM ITER =     64
 *** TIME =  0.160000         TIME INC =  0.500000E-02
 *** RESPONSE FREQ =  17.11       PERIOD=  0.5844E-01  PTS/CYC =  12.    
 *** AUTO STEP TIME:  NEXT TIME INC = 0.50000E-02  UNCHANGED

     FORCE CONVERGENCE VALUE  = 0.2593      CRITERION= 0.6834E-01
     DISP CONVERGENCE VALUE   = 0.4002      CRITERION= 0.2556E-01
    EQUIL ITER   1 COMPLETED.  NEW TRIANG MATRIX.  MAX DOF INC=  0.4002    
     FORCE CONVERGENCE VALUE  =  8.087      CRITERION= 0.5594E-01
     DISP CONVERGENCE VALUE   = 0.3262E-02  CRITERION= 0.2608E-01 <<< CONVERGED
    EQUIL ITER   2 COMPLETED.  NEW TRIANG MATRIX.  MAX DOF INC=  0.3262E-02
     FORCE CONVERGENCE VALUE  = 0.1031E-02  CRITERION= 0.5698E-01 <<< CONVERGED
    >>> SOLUTION CONVERGED AFTER EQUILIBRIUM ITERATION   2
 *** LOAD STEP     1   SUBSTEP    33  COMPLETED.    CUM ITER =     66
 *** TIME =  0.165000         TIME INC =  0.500000E-02
 *** RESPONSE FREQ =  17.10       PERIOD=  0.5849E-01  PTS/CYC =  12.    
 *** AUTO STEP TIME:  NEXT TIME INC = 0.50000E-02  UNCHANGED

     FORCE CONVERGENCE VALUE  = 0.3028      CRITERION= 0.5321E-01
     DISP CONVERGENCE VALUE   = 0.4730      CRITERION= 0.2556E-01
    EQUIL ITER   1 COMPLETED.  NEW TRIANG MATRIX.  MAX DOF INC=  0.4730    
     FORCE CONVERGENCE VALUE  =  18.21      CRITERION= 0.3820E-01
     DISP CONVERGENCE VALUE   = 0.3838E-02  CRITERION= 0.2608E-01 <<< CONVERGED
    EQUIL ITER   2 COMPLETED.  NEW TRIANG MATRIX.  MAX DOF INC=  0.3838E-02
     FORCE CONVERGENCE VALUE  = 0.3623E-03  CRITERION= 0.3887E-01 <<< CONVERGED
    >>> SOLUTION CONVERGED AFTER EQUILIBRIUM ITERATION   2
 *** LOAD STEP     1   SUBSTEP    34  COMPLETED.    CUM ITER =     68
 *** TIME =  0.170000         TIME INC =  0.500000E-02
 *** RESPONSE FREQ =  17.09       PERIOD=  0.5851E-01  PTS/CYC =  12.    
 *** AUTO STEP TIME:  NEXT TIME INC = 0.50000E-02  UNCHANGED

     FORCE CONVERGENCE VALUE  = 0.2651      CRITERION= 0.3557E-01
     DISP CONVERGENCE VALUE   = 0.4194      CRITERION= 0.2556E-01
    EQUIL ITER   1 COMPLETED.  NEW TRIANG MATRIX.  MAX DOF INC=  0.4194    
     FORCE CONVERGENCE VALUE  =  28.17      CRITERION= 0.2151E-01
     DISP CONVERGENCE VALUE   = 0.3357E-02  CRITERION= 0.2608E-01 <<< CONVERGED
    EQUIL ITER   2 COMPLETED.  NEW TRIANG MATRIX.  MAX DOF INC=  0.3357E-02
     FORCE CONVERGENCE VALUE  = 0.1408E-02  CRITERION= 0.2181E-01 <<< CONVERGED
    >>> SOLUTION CONVERGED AFTER EQUILIBRIUM ITERATION   2
 *** LOAD STEP     1   SUBSTEP    35  COMPLETED.    CUM ITER =     70
 *** TIME =  0.175000         TIME INC =  0.500000E-02
 *** RESPONSE FREQ =  17.11       PERIOD=  0.5844E-01  PTS/CYC =  12.    
 *** AUTO STEP TIME:  NEXT TIME INC = 0.50000E-02  UNCHANGED

     FORCE CONVERGENCE VALUE  = 0.1577      CRITERION= 0.1932E-01
     DISP CONVERGENCE VALUE   = 0.2550      CRITERION= 0.2556E-01
    EQUIL ITER   1 COMPLETED.  NEW TRIANG MATRIX.  MAX DOF INC=  0.2550    
     FORCE CONVERGENCE VALUE  =  25.63      CRITERION= 0.1079E-01
     DISP CONVERGENCE VALUE   = 0.2002E-02  CRITERION= 0.2608E-01 <<< CONVERGED
    EQUIL ITER   2 COMPLETED.  NEW TRIANG MATRIX.  MAX DOF INC=  0.2002E-02
     FORCE CONVERGENCE VALUE  = 0.1348E-02  CRITERION= 0.1092E-01 <<< CONVERGED
    >>> SOLUTION CONVERGED AFTER EQUILIBRIUM ITERATION   2
 *** LOAD STEP     1   SUBSTEP    36  COMPLETED.    CUM ITER =     72
 *** TIME =  0.180000         TIME INC =  0.500000E-02
 *** RESPONSE FREQ =  17.14       PERIOD=  0.5833E-01  PTS/CYC =  12.    
 *** AUTO STEP TIME:  NEXT TIME INC = 0.50000E-02  UNCHANGED

     FORCE CONVERGENCE VALUE  = 0.1392E-01  CRITERION= 0.9513E-02
     DISP CONVERGENCE VALUE   = 0.3278E-01  CRITERION= 0.2556E-01
    EQUIL ITER   1 COMPLETED.  NEW TRIANG MATRIX.  MAX DOF INC= -0.3278E-01
     FORCE CONVERGENCE VALUE  =  12.23      CRITERION= 0.9495E-02
     DISP CONVERGENCE VALUE   = 0.3562E-03  CRITERION= 0.2608E-01 <<< CONVERGED
    EQUIL ITER   2 COMPLETED.  NEW TRIANG MATRIX.  MAX DOF INC=  0.3562E-03
     FORCE CONVERGENCE VALUE  = 0.1434E-02  CRITERION= 0.9706E-02 <<< CONVERGED
    >>> SOLUTION CONVERGED AFTER EQUILIBRIUM ITERATION   2
 *** LOAD STEP     1   SUBSTEP    37  COMPLETED.    CUM ITER =     74
 *** TIME =  0.185000         TIME INC =  0.500000E-02
 *** RESPONSE FREQ =  20.32       PERIOD=  0.4920E-01  PTS/CYC =  9.8    
 *** AUTO STEP TIME:  NEXT TIME INC = 0.50000E-02  UNCHANGED

     FORCE CONVERGENCE VALUE  = 0.1424      CRITERION= 0.9303E-02
     DISP CONVERGENCE VALUE   = 0.2191      CRITERION= 0.2556E-01
    EQUIL ITER   1 COMPLETED.  NEW TRIANG MATRIX.  MAX DOF INC= -0.2191    
     FORCE CONVERGENCE VALUE  =  1.600      CRITERION= 0.1738E-01
     DISP CONVERGENCE VALUE   = 0.1752E-02  CRITERION= 0.2608E-01 <<< CONVERGED
    EQUIL ITER   2 COMPLETED.  NEW TRIANG MATRIX.  MAX DOF INC= -0.1752E-02
     FORCE CONVERGENCE VALUE  = 0.4113E-03  CRITERION= 0.1781E-01 <<< CONVERGED
    >>> SOLUTION CONVERGED AFTER EQUILIBRIUM ITERATION   2
 *** LOAD STEP     1   SUBSTEP    38  COMPLETED.    CUM ITER =     76
 *** TIME =  0.190000         TIME INC =  0.500000E-02
 *** RESPONSE FREQ =  17.07       PERIOD=  0.5859E-01  PTS/CYC =  12.    
 *** AUTO STEP TIME:  NEXT TIME INC = 0.50000E-02  UNCHANGED

     FORCE CONVERGENCE VALUE  = 0.2560      CRITERION= 0.1797E-01
     DISP CONVERGENCE VALUE   = 0.3955      CRITERION= 0.2556E-01
    EQUIL ITER   1 COMPLETED.  NEW TRIANG MATRIX.  MAX DOF INC= -0.3955    
     FORCE CONVERGENCE VALUE  =  8.038      CRITERION= 0.3188E-01
     DISP CONVERGENCE VALUE   = 0.3208E-02  CRITERION= 0.2608E-01 <<< CONVERGED
    EQUIL ITER   2 COMPLETED.  NEW TRIANG MATRIX.  MAX DOF INC= -0.3208E-02
     FORCE CONVERGENCE VALUE  = 0.9586E-03  CRITERION= 0.3263E-01 <<< CONVERGED
    >>> SOLUTION CONVERGED AFTER EQUILIBRIUM ITERATION   2
 *** LOAD STEP     1   SUBSTEP    39  COMPLETED.    CUM ITER =     78
 *** TIME =  0.195000         TIME INC =  0.500000E-02
 *** RESPONSE FREQ =  17.08       PERIOD=  0.5856E-01  PTS/CYC =  12.    
 *** AUTO STEP TIME:  NEXT TIME INC = 0.50000E-02  UNCHANGED

     FORCE CONVERGENCE VALUE  = 0.3013      CRITERION= 0.3282E-01
     DISP CONVERGENCE VALUE   = 0.4723      CRITERION= 0.2556E-01
    EQUIL ITER   1 COMPLETED.  NEW TRIANG MATRIX.  MAX DOF INC= -0.4723    
     FORCE CONVERGENCE VALUE  =  30.20      CRITERION= 0.4954E-01
     DISP CONVERGENCE VALUE   = 0.3887E-02  CRITERION= 0.2608E-01 <<< CONVERGED
    EQUIL ITER   2 COMPLETED.  NEW TRIANG MATRIX.  MAX DOF INC= -0.3887E-02
     FORCE CONVERGENCE VALUE  = 0.2322E-02  CRITERION= 0.5067E-01 <<< CONVERGED
    >>> SOLUTION CONVERGED AFTER EQUILIBRIUM ITERATION   2
 *** LOAD STEP     1   SUBSTEP    40  COMPLETED.    CUM ITER =     80
 *** TIME =  0.200000         TIME INC =  0.500000E-02
 *** RESPONSE FREQ =  17.09       PERIOD=  0.5850E-01  PTS/CYC =  12.    
 *** AUTO STEP TIME:  NEXT TIME INC = 0.50000E-02  UNCHANGED

     FORCE CONVERGENCE VALUE  = 0.2662      CRITERION= 0.5043E-01
     DISP CONVERGENCE VALUE   = 0.4201      CRITERION= 0.2556E-01
    EQUIL ITER   1 COMPLETED.  NEW TRIANG MATRIX.  MAX DOF INC= -0.4201    
     FORCE CONVERGENCE VALUE  =  41.12      CRITERION= 0.6605E-01
     DISP CONVERGENCE VALUE   = 0.3430E-02  CRITERION= 0.2608E-01 <<< CONVERGED
    EQUIL ITER   2 COMPLETED.  NEW TRIANG MATRIX.  MAX DOF INC= -0.3430E-02
     FORCE CONVERGENCE VALUE  = 0.3648E-02  CRITERION= 0.6753E-01 <<< CONVERGED
    >>> SOLUTION CONVERGED AFTER EQUILIBRIUM ITERATION   2
 *** LOAD STEP     1   SUBSTEP    41  COMPLETED.    CUM ITER =     82
 *** TIME =  0.205000         TIME INC =  0.500000E-02
 *** RESPONSE FREQ =  17.13       PERIOD=  0.5838E-01  PTS/CYC =  12.    
 *** AUTO STEP TIME:  NEXT TIME INC = 0.50000E-02  UNCHANGED

     FORCE CONVERGENCE VALUE  = 0.1610      CRITERION= 0.6646E-01
     DISP CONVERGENCE VALUE   = 0.2537      CRITERION= 0.2556E-01
    EQUIL ITER   1 COMPLETED.  NEW TRIANG MATRIX.  MAX DOF INC= -0.2537    
     FORCE CONVERGENCE VALUE  =  23.84      CRITERION= 0.7664E-01
     DISP CONVERGENCE VALUE   = 0.2070E-02  CRITERION= 0.2608E-01 <<< CONVERGED
    EQUIL ITER   2 COMPLETED.  NEW TRIANG MATRIX.  MAX DOF INC= -0.2070E-02
     FORCE CONVERGENCE VALUE  = 0.2525E-02  CRITERION= 0.7829E-01 <<< CONVERGED
    >>> SOLUTION CONVERGED AFTER EQUILIBRIUM ITERATION   2
 *** LOAD STEP     1   SUBSTEP    42  COMPLETED.    CUM ITER =     84
 *** TIME =  0.210000         TIME INC =  0.500000E-02
 *** RESPONSE FREQ =  17.11       PERIOD=  0.5843E-01  PTS/CYC =  12.    
 *** AUTO STEP TIME:  NEXT TIME INC = 0.50000E-02  UNCHANGED

     FORCE CONVERGENCE VALUE  = 0.1658E-01  CRITERION= 0.7616E-01
     DISP CONVERGENCE VALUE   = 0.2199E-01  CRITERION= 0.2556E-01 <<< CONVERGED
    EQUIL ITER   1 COMPLETED.  NEW TRIANG MATRIX.  MAX DOF INC= -0.2199E-01
     FORCE CONVERGENCE VALUE  =  4.571      CRITERION= 0.7814E-01
     DISP CONVERGENCE VALUE   = 0.3115E-03  CRITERION= 0.2608E-01 <<< CONVERGED
    EQUIL ITER   2 COMPLETED.  NEW TRIANG MATRIX.  MAX DOF INC= -0.3115E-03
     FORCE CONVERGENCE VALUE  = 0.1066E-02  CRITERION= 0.7973E-01 <<< CONVERGED
    >>> SOLUTION CONVERGED AFTER EQUILIBRIUM ITERATION   2
 *** LOAD STEP     1   SUBSTEP    43  COMPLETED.    CUM ITER =     86
 *** TIME =  0.215000         TIME INC =  0.500000E-02
 *** RESPONSE FREQ =  16.47       PERIOD=  0.6071E-01  PTS/CYC =  12.    
 *** AUTO STEP TIME:  NEXT TIME INC = 0.50000E-02  UNCHANGED

     FORCE CONVERGENCE VALUE  = 0.1380      CRITERION= 0.7662E-01
     DISP CONVERGENCE VALUE   = 0.2223      CRITERION= 0.2556E-01
    EQUIL ITER   1 COMPLETED.  NEW TRIANG MATRIX.  MAX DOF INC=  0.2223    
     FORCE CONVERGENCE VALUE  =  14.69      CRITERION= 0.7047E-01
     DISP CONVERGENCE VALUE   = 0.1750E-02  CRITERION= 0.2608E-01 <<< CONVERGED
    EQUIL ITER   2 COMPLETED.  NEW TRIANG MATRIX.  MAX DOF INC=  0.1750E-02
     FORCE CONVERGENCE VALUE  = 0.5963E-03  CRITERION= 0.7184E-01 <<< CONVERGED
    >>> SOLUTION CONVERGED AFTER EQUILIBRIUM ITERATION   2
 *** LOAD STEP     1   SUBSTEP    44  COMPLETED.    CUM ITER =     88
 *** TIME =  0.220000         TIME INC =  0.500000E-02
 *** RESPONSE FREQ =  17.09       PERIOD=  0.5853E-01  PTS/CYC =  12.    
 *** AUTO STEP TIME:  NEXT TIME INC = 0.50000E-02  UNCHANGED

     FORCE CONVERGENCE VALUE  = 0.2525      CRITERION= 0.6815E-01
     DISP CONVERGENCE VALUE   = 0.4053      CRITERION= 0.2556E-01
    EQUIL ITER   1 COMPLETED.  NEW TRIANG MATRIX.  MAX DOF INC=  0.4053    
     FORCE CONVERGENCE VALUE  =  53.09      CRITERION= 0.5597E-01
     DISP CONVERGENCE VALUE   = 0.3253E-02  CRITERION= 0.2608E-01 <<< CONVERGED
    EQUIL ITER   2 COMPLETED.  NEW TRIANG MATRIX.  MAX DOF INC=  0.3253E-02
     FORCE CONVERGENCE VALUE  = 0.2316E-02  CRITERION= 0.5701E-01 <<< CONVERGED
    >>> SOLUTION CONVERGED AFTER EQUILIBRIUM ITERATION   2
 *** LOAD STEP     1   SUBSTEP    45  COMPLETED.    CUM ITER =     90
 *** TIME =  0.225000         TIME INC =  0.500000E-02
 *** RESPONSE FREQ =  17.18       PERIOD=  0.5819E-01  PTS/CYC =  12.    
 *** AUTO STEP TIME:  NEXT TIME INC = 0.50000E-02  UNCHANGED

     FORCE CONVERGENCE VALUE  = 0.2995      CRITERION= 0.5326E-01
     DISP CONVERGENCE VALUE   = 0.4798      CRITERION= 0.2556E-01
    EQUIL ITER   1 COMPLETED.  NEW TRIANG MATRIX.  MAX DOF INC=  0.4798    
     FORCE CONVERGENCE VALUE  =  80.57      CRITERION= 0.3818E-01
     DISP CONVERGENCE VALUE   = 0.3865E-02  CRITERION= 0.2608E-01 <<< CONVERGED
    EQUIL ITER   2 COMPLETED.  NEW TRIANG MATRIX.  MAX DOF INC=  0.3865E-02
     FORCE CONVERGENCE VALUE  = 0.2687E-02  CRITERION= 0.3883E-01 <<< CONVERGED
    >>> SOLUTION CONVERGED AFTER EQUILIBRIUM ITERATION   2
 *** LOAD STEP     1   SUBSTEP    46  COMPLETED.    CUM ITER =     92
 *** TIME =  0.230000         TIME INC =  0.500000E-02
 *** RESPONSE FREQ =  17.25       PERIOD=  0.5798E-01  PTS/CYC =  12.    
 *** AUTO STEP TIME:  NEXT TIME INC = 0.50000E-02  UNCHANGED

     FORCE CONVERGENCE VALUE  = 0.2667      CRITERION= 0.3552E-01
     DISP CONVERGENCE VALUE   = 0.4248      CRITERION= 0.2556E-01
    EQUIL ITER   1 COMPLETED.  NEW TRIANG MATRIX.  MAX DOF INC=  0.4248    
     FORCE CONVERGENCE VALUE  =  62.12      CRITERION= 0.2161E-01
     DISP CONVERGENCE VALUE   = 0.3410E-02  CRITERION= 0.2608E-01 <<< CONVERGED
    EQUIL ITER   2 COMPLETED.  NEW TRIANG MATRIX.  MAX DOF INC=  0.3410E-02
     FORCE CONVERGENCE VALUE  = 0.2525E-02  CRITERION= 0.2192E-01 <<< CONVERGED
    >>> SOLUTION CONVERGED AFTER EQUILIBRIUM ITERATION   2
 *** LOAD STEP     1   SUBSTEP    47  COMPLETED.    CUM ITER =     94
 *** TIME =  0.235000         TIME INC =  0.500000E-02
 *** RESPONSE FREQ =  17.21       PERIOD=  0.5812E-01  PTS/CYC =  12.    
 *** AUTO STEP TIME:  NEXT TIME INC = 0.50000E-02  UNCHANGED

     FORCE CONVERGENCE VALUE  = 0.1634      CRITERION= 0.1945E-01
     DISP CONVERGENCE VALUE   = 0.2565      CRITERION= 0.2556E-01
    EQUIL ITER   1 COMPLETED.  NEW TRIANG MATRIX.  MAX DOF INC=  0.2565    
     FORCE CONVERGENCE VALUE  =  19.43      CRITERION= 0.1097E-01
     DISP CONVERGENCE VALUE   = 0.2035E-02  CRITERION= 0.2608E-01 <<< CONVERGED
    EQUIL ITER   2 COMPLETED.  NEW TRIANG MATRIX.  MAX DOF INC=  0.2035E-02
     FORCE CONVERGENCE VALUE  = 0.1169E-02  CRITERION= 0.1111E-01 <<< CONVERGED
    >>> SOLUTION CONVERGED AFTER EQUILIBRIUM ITERATION   2
 *** LOAD STEP     1   SUBSTEP    48  COMPLETED.    CUM ITER =     96
 *** TIME =  0.240000         TIME INC =  0.500000E-02
 *** RESPONSE FREQ =  17.11       PERIOD=  0.5844E-01  PTS/CYC =  12.    
 *** AUTO STEP TIME:  NEXT TIME INC = 0.50000E-02  UNCHANGED

     FORCE CONVERGENCE VALUE  = 0.1796E-01  CRITERION= 0.9711E-02
     DISP CONVERGENCE VALUE   = 0.3097E-01  CRITERION= 0.2556E-01
    EQUIL ITER   1 COMPLETED.  NEW TRIANG MATRIX.  MAX DOF INC=  0.3097E-01
     FORCE CONVERGENCE VALUE  =  2.276      CRITERION= 0.9126E-02
     DISP CONVERGENCE VALUE   = 0.3161E-03  CRITERION= 0.2608E-01 <<< CONVERGED
    EQUIL ITER   2 COMPLETED.  NEW TRIANG MATRIX.  MAX DOF INC=  0.3161E-03
     FORCE CONVERGENCE VALUE  = 0.7468E-03  CRITERION= 0.9311E-02 <<< CONVERGED
    >>> SOLUTION CONVERGED AFTER EQUILIBRIUM ITERATION   2
 *** LOAD STEP     1   SUBSTEP    49  COMPLETED.    CUM ITER =     98
 *** TIME =  0.245000         TIME INC =  0.500000E-02
 *** RESPONSE FREQ =  18.21       PERIOD=  0.5493E-01  PTS/CYC =  11.    
 *** AUTO STEP TIME:  NEXT TIME INC = 0.50000E-02  UNCHANGED

     FORCE CONVERGENCE VALUE  = 0.1338      CRITERION= 0.8857E-02
     DISP CONVERGENCE VALUE   = 0.2176      CRITERION= 0.2556E-01
    EQUIL ITER   1 COMPLETED.  NEW TRIANG MATRIX.  MAX DOF INC= -0.2176    
     FORCE CONVERGENCE VALUE  =  24.28      CRITERION= 0.1629E-01
     DISP CONVERGENCE VALUE   = 0.1751E-02  CRITERION= 0.2608E-01 <<< CONVERGED
    EQUIL ITER   2 COMPLETED.  NEW TRIANG MATRIX.  MAX DOF INC= -0.1751E-02
     FORCE CONVERGENCE VALUE  = 0.1691E-02  CRITERION= 0.1669E-01 <<< CONVERGED
    >>> SOLUTION CONVERGED AFTER EQUILIBRIUM ITERATION   2
 *** LOAD STEP     1   SUBSTEP    50  COMPLETED.    CUM ITER =    100
 *** TIME =  0.250000         TIME INC =  0.500000E-02
 *** RESPONSE FREQ =  17.16       PERIOD=  0.5826E-01  PTS/CYC =  12.    
 *** AUTO STEP TIME:  NEXT TIME INC = 0.50000E-02  UNCHANGED

     FORCE CONVERGENCE VALUE  = 0.2490      CRITERION= 0.1683E-01
     DISP CONVERGENCE VALUE   = 0.3979      CRITERION= 0.2556E-01
    EQUIL ITER   1 COMPLETED.  NEW TRIANG MATRIX.  MAX DOF INC= -0.3979    
     FORCE CONVERGENCE VALUE  =  56.89      CRITERION= 0.3055E-01
     DISP CONVERGENCE VALUE   = 0.3171E-02  CRITERION= 0.2608E-01 <<< CONVERGED
    EQUIL ITER   2 COMPLETED.  NEW TRIANG MATRIX.  MAX DOF INC= -0.3171E-02
     FORCE CONVERGENCE VALUE  = 0.1924E-02  CRITERION= 0.3128E-01 <<< CONVERGED
    >>> SOLUTION CONVERGED AFTER EQUILIBRIUM ITERATION   2
 *** LOAD STEP     1   SUBSTEP    51  COMPLETED.    CUM ITER =    102
 *** TIME =  0.255000         TIME INC =  0.500000E-02
 *** RESPONSE FREQ =  17.20       PERIOD=  0.5814E-01  PTS/CYC =  12.    
 *** AUTO STEP TIME:  NEXT TIME INC = 0.50000E-02  UNCHANGED

     FORCE CONVERGENCE VALUE  = 0.2978      CRITERION= 0.3151E-01
     DISP CONVERGENCE VALUE   = 0.4719      CRITERION= 0.2556E-01
    EQUIL ITER   1 COMPLETED.  NEW TRIANG MATRIX.  MAX DOF INC= -0.4719    
     FORCE CONVERGENCE VALUE  =  63.43      CRITERION= 0.4833E-01
     DISP CONVERGENCE VALUE   = 0.3758E-02  CRITERION= 0.2608E-01 <<< CONVERGED
    EQUIL ITER   2 COMPLETED.  NEW TRIANG MATRIX.  MAX DOF INC= -0.3758E-02
     FORCE CONVERGENCE VALUE  = 0.1620E-02  CRITERION= 0.4945E-01 <<< CONVERGED
    >>> SOLUTION CONVERGED AFTER EQUILIBRIUM ITERATION   2
 *** LOAD STEP     1   SUBSTEP    52  COMPLETED.    CUM ITER =    104
 *** TIME =  0.260000         TIME INC =  0.500000E-02
 *** RESPONSE FREQ =  17.18       PERIOD=  0.5821E-01  PTS/CYC =  12.    
 *** AUTO STEP TIME:  NEXT TIME INC = 0.50000E-02  UNCHANGED

     FORCE CONVERGENCE VALUE  = 0.2675      CRITERION= 0.4927E-01
     DISP CONVERGENCE VALUE   = 0.4207      CRITERION= 0.2556E-01
    EQUIL ITER   1 COMPLETED.  NEW TRIANG MATRIX.  MAX DOF INC= -0.4207    
     FORCE CONVERGENCE VALUE  =  37.88      CRITERION= 0.6501E-01
     DISP CONVERGENCE VALUE   = 0.3332E-02  CRITERION= 0.2608E-01 <<< CONVERGED
    EQUIL ITER   2 COMPLETED.  NEW TRIANG MATRIX.  MAX DOF INC= -0.3332E-02
     FORCE CONVERGENCE VALUE  = 0.1084E-02  CRITERION= 0.6646E-01 <<< CONVERGED
    >>> SOLUTION CONVERGED AFTER EQUILIBRIUM ITERATION   2
 *** LOAD STEP     1   SUBSTEP    53  COMPLETED.    CUM ITER =    106
 *** TIME =  0.265000         TIME INC =  0.500000E-02
 *** RESPONSE FREQ =  17.12       PERIOD=  0.5841E-01  PTS/CYC =  12.    
 *** AUTO STEP TIME:  NEXT TIME INC = 0.50000E-02  UNCHANGED

     FORCE CONVERGENCE VALUE  = 0.1665      CRITERION= 0.6545E-01
     DISP CONVERGENCE VALUE   = 0.2596      CRITERION= 0.2556E-01
    EQUIL ITER   1 COMPLETED.  NEW TRIANG MATRIX.  MAX DOF INC= -0.2596    
     FORCE CONVERGENCE VALUE  =  8.812      CRITERION= 0.7595E-01
     DISP CONVERGENCE VALUE   = 0.2065E-02  CRITERION= 0.2608E-01 <<< CONVERGED
    EQUIL ITER   2 COMPLETED.  NEW TRIANG MATRIX.  MAX DOF INC= -0.2065E-02
     FORCE CONVERGENCE VALUE  = 0.2656E-03  CRITERION= 0.7758E-01 <<< CONVERGED
    >>> SOLUTION CONVERGED AFTER EQUILIBRIUM ITERATION   2
 *** LOAD STEP     1   SUBSTEP    54  COMPLETED.    CUM ITER =    108
 *** TIME =  0.270000         TIME INC =  0.500000E-02
 *** RESPONSE FREQ =  17.07       PERIOD=  0.5858E-01  PTS/CYC =  12.    
 *** AUTO STEP TIME:  NEXT TIME INC = 0.50000E-02  UNCHANGED

     FORCE CONVERGENCE VALUE  = 0.2383E-01  CRITERION= 0.7551E-01
     DISP CONVERGENCE VALUE   = 0.3316E-01  CRITERION= 0.2556E-01
    EQUIL ITER   1 COMPLETED.  NEW TRIANG MATRIX.  MAX DOF INC= -0.3316E-01
     FORCE CONVERGENCE VALUE  =  1.476      CRITERION= 0.7819E-01
     DISP CONVERGENCE VALUE   = 0.3542E-03  CRITERION= 0.2608E-01 <<< CONVERGED
    EQUIL ITER   2 COMPLETED.  NEW TRIANG MATRIX.  MAX DOF INC= -0.3542E-03
     FORCE CONVERGENCE VALUE  = 0.7828E-03  CRITERION= 0.7979E-01 <<< CONVERGED
    >>> SOLUTION CONVERGED AFTER EQUILIBRIUM ITERATION   2
 *** LOAD STEP     1   SUBSTEP    55  COMPLETED.    CUM ITER =    110
 *** TIME =  0.275000         TIME INC =  0.500000E-02
 *** RESPONSE FREQ =  16.24       PERIOD=  0.6157E-01  PTS/CYC =  12.    
 *** AUTO STEP TIME:  NEXT TIME INC = 0.50000E-02  UNCHANGED

     FORCE CONVERGENCE VALUE  = 0.1300      CRITERION= 0.7676E-01
     DISP CONVERGENCE VALUE   = 0.2004      CRITERION= 0.2556E-01
    EQUIL ITER   1 COMPLETED.  NEW TRIANG MATRIX.  MAX DOF INC=  0.2004    
     FORCE CONVERGENCE VALUE  =  12.12      CRITERION= 0.7135E-01
     DISP CONVERGENCE VALUE   = 0.1648E-02  CRITERION= 0.2608E-01 <<< CONVERGED
    EQUIL ITER   2 COMPLETED.  NEW TRIANG MATRIX.  MAX DOF INC=  0.1648E-02
     FORCE CONVERGENCE VALUE  = 0.1323E-02  CRITERION= 0.7275E-01 <<< CONVERGED
    >>> SOLUTION CONVERGED AFTER EQUILIBRIUM ITERATION   2
 *** LOAD STEP     1   SUBSTEP    56  COMPLETED.    CUM ITER =    112
 *** TIME =  0.280000         TIME INC =  0.500000E-02
 *** RESPONSE FREQ =  17.05       PERIOD=  0.5864E-01  PTS/CYC =  12.    
 *** AUTO STEP TIME:  NEXT TIME INC = 0.50000E-02  UNCHANGED

     FORCE CONVERGENCE VALUE  = 0.2459      CRITERION= 0.6911E-01
     DISP CONVERGENCE VALUE   = 0.3784      CRITERION= 0.2556E-01
    EQUIL ITER   1 COMPLETED.  NEW TRIANG MATRIX.  MAX DOF INC=  0.3784    
     FORCE CONVERGENCE VALUE  =  22.91      CRITERION= 0.5731E-01
     DISP CONVERGENCE VALUE   = 0.3052E-02  CRITERION= 0.2608E-01 <<< CONVERGED
    EQUIL ITER   2 COMPLETED.  NEW TRIANG MATRIX.  MAX DOF INC=  0.3052E-02
     FORCE CONVERGENCE VALUE  = 0.1354E-02  CRITERION= 0.5838E-01 <<< CONVERGED
    >>> SOLUTION CONVERGED AFTER EQUILIBRIUM ITERATION   2
 *** LOAD STEP     1   SUBSTEP    57  COMPLETED.    CUM ITER =    114
 *** TIME =  0.285000         TIME INC =  0.500000E-02
 *** RESPONSE FREQ =  17.09       PERIOD=  0.5852E-01  PTS/CYC =  12.    
 *** AUTO STEP TIME:  NEXT TIME INC = 0.50000E-02  UNCHANGED

     FORCE CONVERGENCE VALUE  = 0.2965      CRITERION= 0.5462E-01
     DISP CONVERGENCE VALUE   = 0.4557      CRITERION= 0.2556E-01
    EQUIL ITER   1 COMPLETED.  NEW TRIANG MATRIX.  MAX DOF INC=  0.4557    
     FORCE CONVERGENCE VALUE  =  21.25      CRITERION= 0.3967E-01
     DISP CONVERGENCE VALUE   = 0.3670E-02  CRITERION= 0.2608E-01 <<< CONVERGED
    EQUIL ITER   2 COMPLETED.  NEW TRIANG MATRIX.  MAX DOF INC=  0.3670E-02
     FORCE CONVERGENCE VALUE  = 0.8906E-03  CRITERION= 0.4035E-01 <<< CONVERGED
    >>> SOLUTION CONVERGED AFTER EQUILIBRIUM ITERATION   2
 *** LOAD STEP     1   SUBSTEP    58  COMPLETED.    CUM ITER =    116
 *** TIME =  0.290000         TIME INC =  0.500000E-02
 *** RESPONSE FREQ =  17.08       PERIOD=  0.5854E-01  PTS/CYC =  12.    
 *** AUTO STEP TIME:  NEXT TIME INC = 0.50000E-02  UNCHANGED

     FORCE CONVERGENCE VALUE  = 0.2683      CRITERION= 0.3699E-01
     DISP CONVERGENCE VALUE   = 0.4121      CRITERION= 0.2556E-01
    EQUIL ITER   1 COMPLETED.  NEW TRIANG MATRIX.  MAX DOF INC=  0.4121    
     FORCE CONVERGENCE VALUE  =  10.67      CRITERION= 0.2314E-01
     DISP CONVERGENCE VALUE   = 0.3322E-02  CRITERION= 0.2608E-01 <<< CONVERGED
    EQUIL ITER   2 COMPLETED.  NEW TRIANG MATRIX.  MAX DOF INC=  0.3322E-02
     FORCE CONVERGENCE VALUE  = 0.4286E-03  CRITERION= 0.2349E-01 <<< CONVERGED
    >>> SOLUTION CONVERGED AFTER EQUILIBRIUM ITERATION   2
 *** LOAD STEP     1   SUBSTEP    59  COMPLETED.    CUM ITER =    118
 *** TIME =  0.295000         TIME INC =  0.500000E-02
 *** RESPONSE FREQ =  17.08       PERIOD=  0.5856E-01  PTS/CYC =  12.    
 *** AUTO STEP TIME:  NEXT TIME INC = 0.50000E-02  UNCHANGED

     FORCE CONVERGENCE VALUE  = 0.1691      CRITERION= 0.2095E-01
     DISP CONVERGENCE VALUE   = 0.2593      CRITERION= 0.2556E-01
    EQUIL ITER   1 COMPLETED.  NEW TRIANG MATRIX.  MAX DOF INC=  0.2593    
     FORCE CONVERGENCE VALUE  =  2.082      CRITERION= 0.1229E-01
     DISP CONVERGENCE VALUE   = 0.2095E-02  CRITERION= 0.2608E-01 <<< CONVERGED
    EQUIL ITER   2 COMPLETED.  NEW TRIANG MATRIX.  MAX DOF INC=  0.2095E-02
     FORCE CONVERGENCE VALUE  = 0.1228E-03  CRITERION= 0.1247E-01 <<< CONVERGED
    >>> SOLUTION CONVERGED AFTER EQUILIBRIUM ITERATION   2
 *** LOAD STEP     1   SUBSTEP    60  COMPLETED.    CUM ITER =    120
 *** TIME =  0.300000         TIME INC =  0.500000E-02
 *** RESPONSE FREQ =  17.06       PERIOD=  0.5861E-01  PTS/CYC =  12.    
 *** AUTO STEP TIME:  NEXT TIME INC = 0.50000E-02  UNCHANGED

     FORCE CONVERGENCE VALUE  = 0.2590E-01  CRITERION= 0.1098E-01
     DISP CONVERGENCE VALUE   = 0.3875E-01  CRITERION= 0.2556E-01
    EQUIL ITER   1 COMPLETED.  NEW TRIANG MATRIX.  MAX DOF INC=  0.3875E-01
     FORCE CONVERGENCE VALUE  = 0.9291      CRITERION= 0.9991E-02
     DISP CONVERGENCE VALUE   = 0.3343E-03  CRITERION= 0.2608E-01 <<< CONVERGED
    EQUIL ITER   2 COMPLETED.  NEW TRIANG MATRIX.  MAX DOF INC=  0.3343E-03
     FORCE CONVERGENCE VALUE  = 0.3391E-03  CRITERION= 0.1019E-01 <<< CONVERGED
    >>> SOLUTION CONVERGED AFTER EQUILIBRIUM ITERATION   2
 *** LOAD STEP     1   SUBSTEP    61  COMPLETED.    CUM ITER =    122
 *** TIME =  0.305000         TIME INC =  0.500000E-02
 *** RESPONSE FREQ =  16.74       PERIOD=  0.5974E-01  PTS/CYC =  12.    
 *** AUTO STEP TIME:  NEXT TIME INC = 0.50000E-02  UNCHANGED

     FORCE CONVERGENCE VALUE  = 0.1256      CRITERION= 0.9655E-02
     DISP CONVERGENCE VALUE   = 0.1945      CRITERION= 0.2556E-01
    EQUIL ITER   1 COMPLETED.  NEW TRIANG MATRIX.  MAX DOF INC= -0.1945    
     FORCE CONVERGENCE VALUE  =  6.394      CRITERION= 0.1668E-01
     DISP CONVERGENCE VALUE   = 0.1573E-02  CRITERION= 0.2608E-01 <<< CONVERGED
    EQUIL ITER   2 COMPLETED.  NEW TRIANG MATRIX.  MAX DOF INC= -0.1573E-02
     FORCE CONVERGENCE VALUE  = 0.4394E-03  CRITERION= 0.1707E-01 <<< CONVERGED
    >>> SOLUTION CONVERGED AFTER EQUILIBRIUM ITERATION   2
 *** LOAD STEP     1   SUBSTEP    62  COMPLETED.    CUM ITER =    124
 *** TIME =  0.310000         TIME INC =  0.500000E-02
 *** RESPONSE FREQ =  17.08       PERIOD=  0.5855E-01  PTS/CYC =  12.    
 *** AUTO STEP TIME:  NEXT TIME INC = 0.50000E-02  UNCHANGED

     FORCE CONVERGENCE VALUE  = 0.2423      CRITERION= 0.1715E-01
     DISP CONVERGENCE VALUE   = 0.3765      CRITERION= 0.2556E-01
    EQUIL ITER   1 COMPLETED.  NEW TRIANG MATRIX.  MAX DOF INC= -0.3765    
     FORCE CONVERGENCE VALUE  =  14.35      CRITERION= 0.3065E-01
     DISP CONVERGENCE VALUE   = 0.2983E-02  CRITERION= 0.2608E-01 <<< CONVERGED
    EQUIL ITER   2 COMPLETED.  NEW TRIANG MATRIX.  MAX DOF INC= -0.2983E-02
     FORCE CONVERGENCE VALUE  = 0.3678E-03  CRITERION= 0.3138E-01 <<< CONVERGED
    >>> SOLUTION CONVERGED AFTER EQUILIBRIUM ITERATION   2
 *** LOAD STEP     1   SUBSTEP    63  COMPLETED.    CUM ITER =    126
 *** TIME =  0.315000         TIME INC =  0.500000E-02
 *** RESPONSE FREQ =  17.09       PERIOD=  0.5852E-01  PTS/CYC =  12.    
 *** AUTO STEP TIME:  NEXT TIME INC = 0.50000E-02  UNCHANGED

     FORCE CONVERGENCE VALUE  = 0.2946      CRITERION= 0.3158E-01
     DISP CONVERGENCE VALUE   = 0.4604      CRITERION= 0.2556E-01
    EQUIL ITER   1 COMPLETED.  NEW TRIANG MATRIX.  MAX DOF INC= -0.4604    
     FORCE CONVERGENCE VALUE  =  21.62      CRITERION= 0.4830E-01
     DISP CONVERGENCE VALUE   = 0.3677E-02  CRITERION= 0.2608E-01 <<< CONVERGED
    EQUIL ITER   2 COMPLETED.  NEW TRIANG MATRIX.  MAX DOF INC= -0.3677E-02
     FORCE CONVERGENCE VALUE  = 0.4877E-03  CRITERION= 0.4942E-01 <<< CONVERGED
    >>> SOLUTION CONVERGED AFTER EQUILIBRIUM ITERATION   2
 *** LOAD STEP     1   SUBSTEP    64  COMPLETED.    CUM ITER =    128
 *** TIME =  0.320000         TIME INC =  0.500000E-02
 *** RESPONSE FREQ =  17.09       PERIOD=  0.5851E-01  PTS/CYC =  12.    
 *** AUTO STEP TIME:  NEXT TIME INC = 0.50000E-02  UNCHANGED

     FORCE CONVERGENCE VALUE  = 0.2686      CRITERION= 0.4923E-01
     DISP CONVERGENCE VALUE   = 0.4227      CRITERION= 0.2556E-01
    EQUIL ITER   1 COMPLETED.  NEW TRIANG MATRIX.  MAX DOF INC= -0.4227    
     FORCE CONVERGENCE VALUE  =  22.82      CRITERION= 0.6488E-01
     DISP CONVERGENCE VALUE   = 0.3411E-02  CRITERION= 0.2608E-01 <<< CONVERGED
    EQUIL ITER   2 COMPLETED.  NEW TRIANG MATRIX.  MAX DOF INC= -0.3411E-02
     FORCE CONVERGENCE VALUE  = 0.1167E-02  CRITERION= 0.6633E-01 <<< CONVERGED
    >>> SOLUTION CONVERGED AFTER EQUILIBRIUM ITERATION   2
 *** LOAD STEP     1   SUBSTEP    65  COMPLETED.    CUM ITER =    130
 *** TIME =  0.325000         TIME INC =  0.500000E-02
 *** RESPONSE FREQ =  17.10       PERIOD=  0.5849E-01  PTS/CYC =  12.    
 *** AUTO STEP TIME:  NEXT TIME INC = 0.50000E-02  UNCHANGED

     FORCE CONVERGENCE VALUE  = 0.1715      CRITERION= 0.6531E-01
     DISP CONVERGENCE VALUE   = 0.2723      CRITERION= 0.2556E-01
    EQUIL ITER   1 COMPLETED.  NEW TRIANG MATRIX.  MAX DOF INC= -0.2723    
     FORCE CONVERGENCE VALUE  =  13.86      CRITERION= 0.7588E-01
     DISP CONVERGENCE VALUE   = 0.2229E-02  CRITERION= 0.2608E-01 <<< CONVERGED
    EQUIL ITER   2 COMPLETED.  NEW TRIANG MATRIX.  MAX DOF INC= -0.2229E-02
     FORCE CONVERGENCE VALUE  = 0.1287E-02  CRITERION= 0.7750E-01 <<< CONVERGED
    >>> SOLUTION CONVERGED AFTER EQUILIBRIUM ITERATION   2
 *** LOAD STEP     1   SUBSTEP    66  COMPLETED.    CUM ITER =    132
 *** TIME =  0.330000         TIME INC =  0.500000E-02
 *** RESPONSE FREQ =  17.10       PERIOD=  0.5849E-01  PTS/CYC =  12.    
 *** AUTO STEP TIME:  NEXT TIME INC = 0.50000E-02  UNCHANGED

     FORCE CONVERGENCE VALUE  = 0.2966E-01  CRITERION= 0.7545E-01
     DISP CONVERGENCE VALUE   = 0.4844E-01  CRITERION= 0.2556E-01
    EQUIL ITER   1 COMPLETED.  NEW TRIANG MATRIX.  MAX DOF INC= -0.4844E-01
     FORCE CONVERGENCE VALUE  =  2.163      CRITERION= 0.7844E-01
     DISP CONVERGENCE VALUE   = 0.4404E-03  CRITERION= 0.2608E-01 <<< CONVERGED
    EQUIL ITER   2 COMPLETED.  NEW TRIANG MATRIX.  MAX DOF INC= -0.4404E-03
     FORCE CONVERGENCE VALUE  = 0.7242E-03  CRITERION= 0.8005E-01 <<< CONVERGED
    >>> SOLUTION CONVERGED AFTER EQUILIBRIUM ITERATION   2
 *** LOAD STEP     1   SUBSTEP    67  COMPLETED.    CUM ITER =    134
 *** TIME =  0.335000         TIME INC =  0.500000E-02
 *** RESPONSE FREQ =  17.12       PERIOD=  0.5842E-01  PTS/CYC =  12.    
 *** AUTO STEP TIME:  NEXT TIME INC = 0.50000E-02  UNCHANGED

     FORCE CONVERGENCE VALUE  = 0.1215      CRITERION= 0.7704E-01
     DISP CONVERGENCE VALUE   = 0.1897      CRITERION= 0.2556E-01
    EQUIL ITER   1 COMPLETED.  NEW TRIANG MATRIX.  MAX DOF INC=  0.1897    
     FORCE CONVERGENCE VALUE  =  3.109      CRITERION= 0.7197E-01
     DISP CONVERGENCE VALUE   = 0.1514E-02  CRITERION= 0.2608E-01 <<< CONVERGED
    EQUIL ITER   2 COMPLETED.  NEW TRIANG MATRIX.  MAX DOF INC=  0.1514E-02
     FORCE CONVERGENCE VALUE  = 0.6183E-04  CRITERION= 0.7339E-01 <<< CONVERGED
    >>> SOLUTION CONVERGED AFTER EQUILIBRIUM ITERATION   2
 *** LOAD STEP     1   SUBSTEP    68  COMPLETED.    CUM ITER =    136
 *** TIME =  0.340000         TIME INC =  0.500000E-02
 *** RESPONSE FREQ =  17.06       PERIOD=  0.5860E-01  PTS/CYC =  12.    
 *** AUTO STEP TIME:  NEXT TIME INC = 0.50000E-02  UNCHANGED

     FORCE CONVERGENCE VALUE  = 0.2390      CRITERION= 0.6975E-01
     DISP CONVERGENCE VALUE   = 0.3787      CRITERION= 0.2556E-01
    EQUIL ITER   1 COMPLETED.  NEW TRIANG MATRIX.  MAX DOF INC=  0.3787    
     FORCE CONVERGENCE VALUE  =  24.53      CRITERION= 0.5813E-01
     DISP CONVERGENCE VALUE   = 0.3014E-02  CRITERION= 0.2608E-01 <<< CONVERGED
    EQUIL ITER   2 COMPLETED.  NEW TRIANG MATRIX.  MAX DOF INC=  0.3014E-02
     FORCE CONVERGENCE VALUE  = 0.6850E-03  CRITERION= 0.5921E-01 <<< CONVERGED
    >>> SOLUTION CONVERGED AFTER EQUILIBRIUM ITERATION   2
 *** LOAD STEP     1   SUBSTEP    69  COMPLETED.    CUM ITER =    138
 *** TIME =  0.345000         TIME INC =  0.500000E-02
 *** RESPONSE FREQ =  17.10       PERIOD=  0.5849E-01  PTS/CYC =  12.    
 *** AUTO STEP TIME:  NEXT TIME INC = 0.50000E-02  UNCHANGED

     FORCE CONVERGENCE VALUE  = 0.2929      CRITERION= 0.5544E-01
     DISP CONVERGENCE VALUE   = 0.4682      CRITERION= 0.2556E-01
    EQUIL ITER   1 COMPLETED.  NEW TRIANG MATRIX.  MAX DOF INC=  0.4682    
     FORCE CONVERGENCE VALUE  =  53.64      CRITERION= 0.4052E-01
     DISP CONVERGENCE VALUE   = 0.3739E-02  CRITERION= 0.2608E-01 <<< CONVERGED
    EQUIL ITER   2 COMPLETED.  NEW TRIANG MATRIX.  MAX DOF INC=  0.3739E-02
     FORCE CONVERGENCE VALUE  = 0.1713E-02  CRITERION= 0.4121E-01 <<< CONVERGED
    >>> SOLUTION CONVERGED AFTER EQUILIBRIUM ITERATION   2
 *** LOAD STEP     1   SUBSTEP    70  COMPLETED.    CUM ITER =    140
 *** TIME =  0.350000         TIME INC =  0.500000E-02
 *** RESPONSE FREQ =  17.15       PERIOD=  0.5831E-01  PTS/CYC =  12.    
 *** AUTO STEP TIME:  NEXT TIME INC = 0.50000E-02  UNCHANGED

     FORCE CONVERGENCE VALUE  = 0.2692      CRITERION= 0.3782E-01
     DISP CONVERGENCE VALUE   = 0.4334      CRITERION= 0.2556E-01
    EQUIL ITER   1 COMPLETED.  NEW TRIANG MATRIX.  MAX DOF INC=  0.4334    
     FORCE CONVERGENCE VALUE  =  61.90      CRITERION= 0.2387E-01
     DISP CONVERGENCE VALUE   = 0.3469E-02  CRITERION= 0.2608E-01 <<< CONVERGED
    EQUIL ITER   2 COMPLETED.  NEW TRIANG MATRIX.  MAX DOF INC=  0.3469E-02
     FORCE CONVERGENCE VALUE  = 0.2142E-02  CRITERION= 0.2424E-01 <<< CONVERGED
    >>> SOLUTION CONVERGED AFTER EQUILIBRIUM ITERATION   2
 *** LOAD STEP     1   SUBSTEP    71  COMPLETED.    CUM ITER =    142
 *** TIME =  0.355000         TIME INC =  0.500000E-02
 *** RESPONSE FREQ =  17.19       PERIOD=  0.5816E-01  PTS/CYC =  12.    
 *** AUTO STEP TIME:  NEXT TIME INC = 0.50000E-02  UNCHANGED

     FORCE CONVERGENCE VALUE  = 0.1742      CRITERION= 0.2166E-01
     DISP CONVERGENCE VALUE   = 0.2831      CRITERION= 0.2556E-01
    EQUIL ITER   1 COMPLETED.  NEW TRIANG MATRIX.  MAX DOF INC=  0.2831    
     FORCE CONVERGENCE VALUE  =  39.08      CRITERION= 0.1265E-01
     DISP CONVERGENCE VALUE   = 0.2267E-02  CRITERION= 0.2608E-01 <<< CONVERGED
    EQUIL ITER   2 COMPLETED.  NEW TRIANG MATRIX.  MAX DOF INC=  0.2267E-02
     FORCE CONVERGENCE VALUE  = 0.1591E-02  CRITERION= 0.1284E-01 <<< CONVERGED
    >>> SOLUTION CONVERGED AFTER EQUILIBRIUM ITERATION   2
 *** LOAD STEP     1   SUBSTEP    72  COMPLETED.    CUM ITER =    144
 *** TIME =  0.360000         TIME INC =  0.500000E-02
 *** RESPONSE FREQ =  17.17       PERIOD=  0.5824E-01  PTS/CYC =  12.    
 *** AUTO STEP TIME:  NEXT TIME INC = 0.50000E-02  UNCHANGED

     FORCE CONVERGENCE VALUE  = 0.3420E-01  CRITERION= 0.1130E-01
     DISP CONVERGENCE VALUE   = 0.5777E-01  CRITERION= 0.2556E-01
    EQUIL ITER   1 COMPLETED.  NEW TRIANG MATRIX.  MAX DOF INC=  0.5777E-01
     FORCE CONVERGENCE VALUE  =  9.062      CRITERION= 0.9711E-02
     DISP CONVERGENCE VALUE   = 0.4356E-03  CRITERION= 0.2608E-01 <<< CONVERGED
    EQUIL ITER   2 COMPLETED.  NEW TRIANG MATRIX.  MAX DOF INC=  0.4356E-03
     FORCE CONVERGENCE VALUE  = 0.5400E-03  CRITERION= 0.9896E-02 <<< CONVERGED
    >>> SOLUTION CONVERGED AFTER EQUILIBRIUM ITERATION   2
 *** LOAD STEP     1   SUBSTEP    73  COMPLETED.    CUM ITER =    146
 *** TIME =  0.365000         TIME INC =  0.500000E-02
 *** RESPONSE FREQ =  16.55       PERIOD=  0.6043E-01  PTS/CYC =  12.    
 *** AUTO STEP TIME:  NEXT TIME INC = 0.50000E-02  UNCHANGED

     FORCE CONVERGENCE VALUE  = 0.1176      CRITERION= 0.9305E-02
     DISP CONVERGENCE VALUE   = 0.1816      CRITERION= 0.2556E-01
    EQUIL ITER   1 COMPLETED.  NEW TRIANG MATRIX.  MAX DOF INC= -0.1816    
     FORCE CONVERGENCE VALUE  =  1.643      CRITERION= 0.1570E-01
     DISP CONVERGENCE VALUE   = 0.1518E-02  CRITERION= 0.2608E-01 <<< CONVERGED
    EQUIL ITER   2 COMPLETED.  NEW TRIANG MATRIX.  MAX DOF INC= -0.1518E-02
     FORCE CONVERGENCE VALUE  = 0.4939E-03  CRITERION= 0.1607E-01 <<< CONVERGED
    >>> SOLUTION CONVERGED AFTER EQUILIBRIUM ITERATION   2
 *** LOAD STEP     1   SUBSTEP    74  COMPLETED.    CUM ITER =    148
[...]

     FORCE CONVERGENCE VALUE  = 0.2514E-01  CRITERION= 0.6615E-01
     DISP CONVERGENCE VALUE   = 0.4124E-01  CRITERION= 0.2556E-01
    EQUIL ITER   1 COMPLETED.  NEW TRIANG MATRIX.  MAX DOF INC= -0.4124E-01
     FORCE CONVERGENCE VALUE  =  1.672      CRITERION= 0.6887E-01
     DISP CONVERGENCE VALUE   = 0.3118E-03  CRITERION= 0.2608E-01 <<< CONVERGED
    EQUIL ITER   2 COMPLETED.  NEW TRIANG MATRIX.  MAX DOF INC= -0.3118E-03
     FORCE CONVERGENCE VALUE  = 0.2767E-04  CRITERION= 0.7029E-01 <<< CONVERGED
    >>> SOLUTION CONVERGED AFTER EQUILIBRIUM ITERATION   2
 *** LOAD STEP     1   SUBSTEP   537  COMPLETED.    CUM ITER =   1073
 *** TIME =   2.68500         TIME INC =  0.500000E-02
 *** RESPONSE FREQ =  16.61       PERIOD=  0.6021E-01  PTS/CYC =  12.    
 *** AUTO STEP TIME:  NEXT TIME INC = 0.50000E-02  UNCHANGED

     FORCE CONVERGENCE VALUE  = 0.8299E-01  CRITERION= 0.6765E-01
     DISP CONVERGENCE VALUE   = 0.1283      CRITERION= 0.2556E-01
    EQUIL ITER   1 COMPLETED.  NEW TRIANG MATRIX.  MAX DOF INC=  0.1283    
     FORCE CONVERGENCE VALUE  =  1.676      CRITERION= 0.6454E-01
     DISP CONVERGENCE VALUE   = 0.1052E-02  CRITERION= 0.2608E-01 <<< CONVERGED
    EQUIL ITER   2 COMPLETED.  NEW TRIANG MATRIX.  MAX DOF INC=  0.1052E-02
     FORCE CONVERGENCE VALUE  = 0.1681E-03  CRITERION= 0.6582E-01 <<< CONVERGED
    >>> SOLUTION CONVERGED AFTER EQUILIBRIUM ITERATION   2
 *** LOAD STEP     1   SUBSTEP   538  COMPLETED.    CUM ITER =   1075
 *** TIME =   2.69000         TIME INC =  0.500000E-02
 *** RESPONSE FREQ =  17.05       PERIOD=  0.5863E-01  PTS/CYC =  12.    
 *** AUTO STEP TIME:  NEXT TIME INC = 0.50000E-02  UNCHANGED

     FORCE CONVERGENCE VALUE  = 0.1681      CRITERION= 0.6272E-01
     DISP CONVERGENCE VALUE   = 0.2630      CRITERION= 0.2556E-01
    EQUIL ITER   1 COMPLETED.  NEW TRIANG MATRIX.  MAX DOF INC=  0.2630    
     FORCE CONVERGENCE VALUE  =  10.12      CRITERION= 0.5484E-01
     DISP CONVERGENCE VALUE   = 0.2131E-02  CRITERION= 0.2608E-01 <<< CONVERGED
    EQUIL ITER   2 COMPLETED.  NEW TRIANG MATRIX.  MAX DOF INC=  0.2131E-02
     FORCE CONVERGENCE VALUE  = 0.6492E-03  CRITERION= 0.5588E-01 <<< CONVERGED
    >>> SOLUTION CONVERGED AFTER EQUILIBRIUM ITERATION   2
 *** LOAD STEP     1   SUBSTEP   539  COMPLETED.    CUM ITER =   1077
 *** TIME =   2.69500         TIME INC =  0.500000E-02
 *** RESPONSE FREQ =  17.08       PERIOD=  0.5853E-01  PTS/CYC =  12.    
 *** AUTO STEP TIME:  NEXT TIME INC = 0.50000E-02  UNCHANGED

     FORCE CONVERGENCE VALUE  = 0.2085      CRITERION= 0.5266E-01
     DISP CONVERGENCE VALUE   = 0.3272      CRITERION= 0.2556E-01
    EQUIL ITER   1 COMPLETED.  NEW TRIANG MATRIX.  MAX DOF INC=  0.3272    
     FORCE CONVERGENCE VALUE  =  17.64      CRITERION= 0.4235E-01
     DISP CONVERGENCE VALUE   = 0.2640E-02  CRITERION= 0.2608E-01 <<< CONVERGED
    EQUIL ITER   2 COMPLETED.  NEW TRIANG MATRIX.  MAX DOF INC=  0.2640E-02
     FORCE CONVERGENCE VALUE  = 0.9000E-03  CRITERION= 0.4312E-01 <<< CONVERGED
    >>> SOLUTION CONVERGED AFTER EQUILIBRIUM ITERATION   2
 *** LOAD STEP     1   SUBSTEP   540  COMPLETED.    CUM ITER =   1079
 *** TIME =   2.70000         TIME INC =  0.500000E-02
 *** RESPONSE FREQ =  17.09       PERIOD=  0.5850E-01  PTS/CYC =  12.    
 *** AUTO STEP TIME:  NEXT TIME INC = 0.50000E-02  UNCHANGED

     FORCE CONVERGENCE VALUE  = 0.1935      CRITERION= 0.4017E-01
     DISP CONVERGENCE VALUE   = 0.3044      CRITERION= 0.2556E-01
    EQUIL ITER   1 COMPLETED.  NEW TRIANG MATRIX.  MAX DOF INC=  0.3044    
     FORCE CONVERGENCE VALUE  =  16.62      CRITERION= 0.3040E-01
     DISP CONVERGENCE VALUE   = 0.2449E-02  CRITERION= 0.2608E-01 <<< CONVERGED
    EQUIL ITER   2 COMPLETED.  NEW TRIANG MATRIX.  MAX DOF INC=  0.2449E-02
     FORCE CONVERGENCE VALUE  = 0.7923E-03  CRITERION= 0.3094E-01 <<< CONVERGED
    >>> SOLUTION CONVERGED AFTER EQUILIBRIUM ITERATION   2
 *** LOAD STEP     1   SUBSTEP   541  COMPLETED.    CUM ITER =   1081
 *** TIME =   2.70500         TIME INC =  0.500000E-02
 *** RESPONSE FREQ =  17.09       PERIOD=  0.5850E-01  PTS/CYC =  12.    
 *** AUTO STEP TIME:  NEXT TIME INC = 0.50000E-02  UNCHANGED

     FORCE CONVERGENCE VALUE  = 0.1272      CRITERION= 0.2855E-01
     DISP CONVERGENCE VALUE   = 0.2010      CRITERION= 0.2556E-01
    EQUIL ITER   1 COMPLETED.  NEW TRIANG MATRIX.  MAX DOF INC=  0.2010    
     FORCE CONVERGENCE VALUE  =  8.441      CRITERION= 0.2215E-01
     DISP CONVERGENCE VALUE   = 0.1611E-02  CRITERION= 0.2608E-01 <<< CONVERGED
    EQUIL ITER   2 COMPLETED.  NEW TRIANG MATRIX.  MAX DOF INC=  0.1611E-02
     FORCE CONVERGENCE VALUE  = 0.4011E-03  CRITERION= 0.2255E-01 <<< CONVERGED
    >>> SOLUTION CONVERGED AFTER EQUILIBRIUM ITERATION   2
 *** LOAD STEP     1   SUBSTEP   542  COMPLETED.    CUM ITER =   1083
 *** TIME =   2.71000         TIME INC =  0.500000E-02
 *** RESPONSE FREQ =  17.08       PERIOD=  0.5854E-01  PTS/CYC =  12.    
 *** AUTO STEP TIME:  NEXT TIME INC = 0.50000E-02  UNCHANGED

     FORCE CONVERGENCE VALUE  = 0.2754E-01  CRITERION= 0.2089E-01
     DISP CONVERGENCE VALUE   = 0.4478E-01  CRITERION= 0.2556E-01
    EQUIL ITER   1 COMPLETED.  NEW TRIANG MATRIX.  MAX DOF INC=  0.4478E-01
     FORCE CONVERGENCE VALUE  =  1.264      CRITERION= 0.1977E-01
     DISP CONVERGENCE VALUE   = 0.3455E-03  CRITERION= 0.2608E-01 <<< CONVERGED
    EQUIL ITER   2 COMPLETED.  NEW TRIANG MATRIX.  MAX DOF INC=  0.3455E-03
     FORCE CONVERGENCE VALUE  = 0.2790E-04  CRITERION= 0.2016E-01 <<< CONVERGED
    >>> SOLUTION CONVERGED AFTER EQUILIBRIUM ITERATION   2
 *** LOAD STEP     1   SUBSTEP   543  COMPLETED.    CUM ITER =   1085
 *** TIME =   2.71500         TIME INC =  0.500000E-02
 *** RESPONSE FREQ =  16.85       PERIOD=  0.5935E-01  PTS/CYC =  12.    
 *** AUTO STEP TIME:  NEXT TIME INC = 0.50000E-02  UNCHANGED

     FORCE CONVERGENCE VALUE  = 0.8011E-01  CRITERION= 0.1919E-01
     DISP CONVERGENCE VALUE   = 0.1233      CRITERION= 0.2556E-01
    EQUIL ITER   1 COMPLETED.  NEW TRIANG MATRIX.  MAX DOF INC= -0.1233    
     FORCE CONVERGENCE VALUE  =  1.590      CRITERION= 0.2384E-01
     DISP CONVERGENCE VALUE   = 0.1011E-02  CRITERION= 0.2608E-01 <<< CONVERGED
    EQUIL ITER   2 COMPLETED.  NEW TRIANG MATRIX.  MAX DOF INC= -0.1011E-02
     FORCE CONVERGENCE VALUE  = 0.1478E-03  CRITERION= 0.2437E-01 <<< CONVERGED
    >>> SOLUTION CONVERGED AFTER EQUILIBRIUM ITERATION   2
 *** LOAD STEP     1   SUBSTEP   544  COMPLETED.    CUM ITER =   1087
 *** TIME =   2.72000         TIME INC =  0.500000E-02
 *** RESPONSE FREQ =  17.03       PERIOD=  0.5872E-01  PTS/CYC =  12.    
 *** AUTO STEP TIME:  NEXT TIME INC = 0.50000E-02  UNCHANGED

     FORCE CONVERGENCE VALUE  = 0.1658      CRITERION= 0.2387E-01
     DISP CONVERGENCE VALUE   = 0.2569      CRITERION= 0.2556E-01
    EQUIL ITER   1 COMPLETED.  NEW TRIANG MATRIX.  MAX DOF INC= -0.2569    
     FORCE CONVERGENCE VALUE  =  7.908      CRITERION= 0.3328E-01
     DISP CONVERGENCE VALUE   = 0.2093E-02  CRITERION= 0.2608E-01 <<< CONVERGED
    EQUIL ITER   2 COMPLETED.  NEW TRIANG MATRIX.  MAX DOF INC= -0.2093E-02
     FORCE CONVERGENCE VALUE  = 0.5888E-03  CRITERION= 0.3403E-01 <<< CONVERGED
    >>> SOLUTION CONVERGED AFTER EQUILIBRIUM ITERATION   2
 *** LOAD STEP     1   SUBSTEP   545  COMPLETED.    CUM ITER =   1089
 *** TIME =   2.72500         TIME INC =  0.500000E-02
 *** RESPONSE FREQ =  17.07       PERIOD=  0.5859E-01  PTS/CYC =  12.    
 *** AUTO STEP TIME:  NEXT TIME INC = 0.50000E-02  UNCHANGED

     FORCE CONVERGENCE VALUE  = 0.2074      CRITERION= 0.3366E-01
     DISP CONVERGENCE VALUE   = 0.3217      CRITERION= 0.2556E-01
    EQUIL ITER   1 COMPLETED.  NEW TRIANG MATRIX.  MAX DOF INC= -0.3217    
     FORCE CONVERGENCE VALUE  =  12.82      CRITERION= 0.4553E-01
     DISP CONVERGENCE VALUE   = 0.2616E-02  CRITERION= 0.2608E-01 <<< CONVERGED
    EQUIL ITER   2 COMPLETED.  NEW TRIANG MATRIX.  MAX DOF INC= -0.2616E-02
     FORCE CONVERGENCE VALUE  = 0.8559E-03  CRITERION= 0.4656E-01 <<< CONVERGED
    >>> SOLUTION CONVERGED AFTER EQUILIBRIUM ITERATION   2
 *** LOAD STEP     1   SUBSTEP   546  COMPLETED.    CUM ITER =   1091
 *** TIME =   2.73000         TIME INC =  0.500000E-02
 *** RESPONSE FREQ =  17.07       PERIOD=  0.5857E-01  PTS/CYC =  12.    
 *** AUTO STEP TIME:  NEXT TIME INC = 0.50000E-02  UNCHANGED

     FORCE CONVERGENCE VALUE  = 0.1940      CRITERION= 0.4594E-01
     DISP CONVERGENCE VALUE   = 0.3003      CRITERION= 0.2556E-01
    EQUIL ITER   1 COMPLETED.  NEW TRIANG MATRIX.  MAX DOF INC= -0.3003    
     FORCE CONVERGENCE VALUE  =  10.79      CRITERION= 0.5732E-01
     DISP CONVERGENCE VALUE   = 0.2447E-02  CRITERION= 0.2608E-01 <<< CONVERGED
    EQUIL ITER   2 COMPLETED.  NEW TRIANG MATRIX.  MAX DOF INC= -0.2447E-02
     FORCE CONVERGENCE VALUE  = 0.7880E-03  CRITERION= 0.5858E-01 <<< CONVERGED
    >>> SOLUTION CONVERGED AFTER EQUILIBRIUM ITERATION   2
 *** LOAD STEP     1   SUBSTEP   547  COMPLETED.    CUM ITER =   1093
 *** TIME =   2.73500         TIME INC =  0.500000E-02
 *** RESPONSE FREQ =  17.07       PERIOD=  0.5859E-01  PTS/CYC =  12.    
 *** AUTO STEP TIME:  NEXT TIME INC = 0.50000E-02  UNCHANGED

     FORCE CONVERGENCE VALUE  = 0.1293      CRITERION= 0.5741E-01
     DISP CONVERGENCE VALUE   = 0.1983      CRITERION= 0.2556E-01
    EQUIL ITER   1 COMPLETED.  NEW TRIANG MATRIX.  MAX DOF INC= -0.1983    
     FORCE CONVERGENCE VALUE  =  4.245      CRITERION= 0.6549E-01
     DISP CONVERGENCE VALUE   = 0.1629E-02  CRITERION= 0.2608E-01 <<< CONVERGED
    EQUIL ITER   2 COMPLETED.  NEW TRIANG MATRIX.  MAX DOF INC= -0.1629E-02
     FORCE CONVERGENCE VALUE  = 0.4000E-03  CRITERION= 0.6688E-01 <<< CONVERGED
    >>> SOLUTION CONVERGED AFTER EQUILIBRIUM ITERATION   2
 *** LOAD STEP     1   SUBSTEP   548  COMPLETED.    CUM ITER =   1095
 *** TIME =   2.74000         TIME INC =  0.500000E-02
 *** RESPONSE FREQ =  17.04       PERIOD=  0.5869E-01  PTS/CYC =  12.    
 *** AUTO STEP TIME:  NEXT TIME INC = 0.50000E-02  UNCHANGED

     FORCE CONVERGENCE VALUE  = 0.3129E-01  CRITERION= 0.6499E-01
     DISP CONVERGENCE VALUE   = 0.4848E-01  CRITERION= 0.2556E-01
    EQUIL ITER   1 COMPLETED.  NEW TRIANG MATRIX.  MAX DOF INC= -0.4848E-01
     FORCE CONVERGENCE VALUE  =  1.209      CRITERION= 0.6784E-01
     DISP CONVERGENCE VALUE   = 0.3770E-03  CRITERION= 0.2608E-01 <<< CONVERGED
    EQUIL ITER   2 COMPLETED.  NEW TRIANG MATRIX.  MAX DOF INC= -0.3770E-03
     FORCE CONVERGENCE VALUE  = 0.2099E-04  CRITERION= 0.6924E-01 <<< CONVERGED
    >>> SOLUTION CONVERGED AFTER EQUILIBRIUM ITERATION   2
 *** LOAD STEP     1   SUBSTEP   549  COMPLETED.    CUM ITER =   1097
 *** TIME =   2.74500         TIME INC =  0.500000E-02
 *** RESPONSE FREQ =  16.34       PERIOD=  0.6120E-01  PTS/CYC =  12.    
 *** AUTO STEP TIME:  NEXT TIME INC = 0.50000E-02  UNCHANGED

     FORCE CONVERGENCE VALUE  = 0.7733E-01  CRITERION= 0.6667E-01
     DISP CONVERGENCE VALUE   = 0.1249      CRITERION= 0.2556E-01
    EQUIL ITER   1 COMPLETED.  NEW TRIANG MATRIX.  MAX DOF INC=  0.1249    
     FORCE CONVERGENCE VALUE  =  6.847      CRITERION= 0.6376E-01
     DISP CONVERGENCE VALUE   = 0.9772E-03  CRITERION= 0.2608E-01 <<< CONVERGED
    EQUIL ITER   2 COMPLETED.  NEW TRIANG MATRIX.  MAX DOF INC=  0.9772E-03
     FORCE CONVERGENCE VALUE  = 0.1628E-03  CRITERION= 0.6503E-01 <<< CONVERGED
    >>> SOLUTION CONVERGED AFTER EQUILIBRIUM ITERATION   2
 *** LOAD STEP     1   SUBSTEP   550  COMPLETED.    CUM ITER =   1099
 *** TIME =   2.75000         TIME INC =  0.500000E-02
 *** RESPONSE FREQ =  16.99       PERIOD=  0.5887E-01  PTS/CYC =  12.    
 *** AUTO STEP TIME:  NEXT TIME INC = 0.50000E-02  UNCHANGED

     FORCE CONVERGENCE VALUE  = 0.1633      CRITERION= 0.6198E-01
     DISP CONVERGENCE VALUE   = 0.2601      CRITERION= 0.2556E-01
    EQUIL ITER   1 COMPLETED.  NEW TRIANG MATRIX.  MAX DOF INC=  0.2601    
     FORCE CONVERGENCE VALUE  =  18.14      CRITERION= 0.5432E-01
     DISP CONVERGENCE VALUE   = 0.2067E-02  CRITERION= 0.2608E-01 <<< CONVERGED
    EQUIL ITER   2 COMPLETED.  NEW TRIANG MATRIX.  MAX DOF INC=  0.2067E-02
     FORCE CONVERGENCE VALUE  = 0.5811E-03  CRITERION= 0.5535E-01 <<< CONVERGED
    >>> SOLUTION CONVERGED AFTER EQUILIBRIUM ITERATION   2
 *** LOAD STEP     1   SUBSTEP   551  COMPLETED.    CUM ITER =   1101
 *** TIME =   2.75500         TIME INC =  0.500000E-02
 *** RESPONSE FREQ =  17.09       PERIOD=  0.5853E-01  PTS/CYC =  12.    
 *** AUTO STEP TIME:  NEXT TIME INC = 0.50000E-02  UNCHANGED

     FORCE CONVERGENCE VALUE  = 0.2060      CRITERION= 0.5218E-01
     DISP CONVERGENCE VALUE   = 0.3271      CRITERION= 0.2556E-01
    EQUIL ITER   1 COMPLETED.  NEW TRIANG MATRIX.  MAX DOF INC=  0.3271    
     FORCE CONVERGENCE VALUE  =  25.37      CRITERION= 0.4202E-01
     DISP CONVERGENCE VALUE   = 0.2608E-02  CRITERION= 0.2608E-01 <<< CONVERGED
    EQUIL ITER   2 COMPLETED.  NEW TRIANG MATRIX.  MAX DOF INC=  0.2608E-02
     FORCE CONVERGENCE VALUE  = 0.8300E-03  CRITERION= 0.4278E-01 <<< CONVERGED
    >>> SOLUTION CONVERGED AFTER EQUILIBRIUM ITERATION   2
 *** LOAD STEP     1   SUBSTEP   552  COMPLETED.    CUM ITER =   1103
 *** TIME =   2.76000         TIME INC =  0.500000E-02
 *** RESPONSE FREQ =  17.10       PERIOD=  0.5847E-01  PTS/CYC =  12.    
 *** AUTO STEP TIME:  NEXT TIME INC = 0.50000E-02  UNCHANGED

     FORCE CONVERGENCE VALUE  = 0.1940      CRITERION= 0.3986E-01
     DISP CONVERGENCE VALUE   = 0.3079      CRITERION= 0.2556E-01
    EQUIL ITER   1 COMPLETED.  NEW TRIANG MATRIX.  MAX DOF INC=  0.3079    
     FORCE CONVERGENCE VALUE  =  21.85      CRITERION= 0.3013E-01
     DISP CONVERGENCE VALUE   = 0.2460E-02  CRITERION= 0.2608E-01 <<< CONVERGED
    EQUIL ITER   2 COMPLETED.  NEW TRIANG MATRIX.  MAX DOF INC=  0.2460E-02
     FORCE CONVERGENCE VALUE  = 0.7876E-03  CRITERION= 0.3066E-01 <<< CONVERGED
    >>> SOLUTION CONVERGED AFTER EQUILIBRIUM ITERATION   2
 *** LOAD STEP     1   SUBSTEP   553  COMPLETED.    CUM ITER =   1105
 *** TIME =   2.76500         TIME INC =  0.500000E-02
 *** RESPONSE FREQ =  17.10       PERIOD=  0.5848E-01  PTS/CYC =  12.    
 *** AUTO STEP TIME:  NEXT TIME INC = 0.50000E-02  UNCHANGED

     FORCE CONVERGENCE VALUE  = 0.1306      CRITERION= 0.2829E-01
     DISP CONVERGENCE VALUE   = 0.2077      CRITERION= 0.2556E-01
    EQUIL ITER   1 COMPLETED.  NEW TRIANG MATRIX.  MAX DOF INC=  0.2077    
     FORCE CONVERGENCE VALUE  =  10.47      CRITERION= 0.2181E-01
     DISP CONVERGENCE VALUE   = 0.1663E-02  CRITERION= 0.2608E-01 <<< CONVERGED
    EQUIL ITER   2 COMPLETED.  NEW TRIANG MATRIX.  MAX DOF INC=  0.1663E-02
     FORCE CONVERGENCE VALUE  = 0.4473E-03  CRITERION= 0.2219E-01 <<< CONVERGED
    >>> SOLUTION CONVERGED AFTER EQUILIBRIUM ITERATION   2
 *** LOAD STEP     1   SUBSTEP   554  COMPLETED.    CUM ITER =   1107
 *** TIME =   2.77000         TIME INC =  0.500000E-02
 *** RESPONSE FREQ =  17.08       PERIOD=  0.5854E-01  PTS/CYC =  12.    
 *** AUTO STEP TIME:  NEXT TIME INC = 0.50000E-02  UNCHANGED

     FORCE CONVERGENCE VALUE  = 0.3266E-01  CRITERION= 0.2054E-01
     DISP CONVERGENCE VALUE   = 0.5295E-01  CRITERION= 0.2556E-01
    EQUIL ITER   1 COMPLETED.  NEW TRIANG MATRIX.  MAX DOF INC=  0.5295E-01

 *** ERROR ***                           CP =   15420.844   TIME= 13:59:31
 The run is terminated at the user's request from the ABT file.          

 *** WARNING ***                         CP =   15420.859   TIME= 13:59:31
 The unconverged solution (identified as time 5 substep 999999) is       
 output for analysis debug purposes.  Results should not be used for     
 any other purpose.                                                      




         R E S T A R T   I N F O R M A T I O N

 REASON FOR TERMINATION. . . . . . . . . .NONLINEAR KEYWORD ON THE ABT FILE       
 FILES NEEDED FOR RESTARTING . . . . . . .  file.Rnnn
                                            file.ldhi
                                            file.rdb
 TIME OF LAST SOLUTION . . . . . . . . . .  2.7700    
    TIME AT START OF THE LOAD STEP . . . .  0.0000    
    TIME AT END OF THE LOAD STEP . . . . .  5.0000    

 ALL CURRENT ANSYS DATA WRITTEN TO FILE NAME= file.db
  FOR POSSIBLE RESUME FROM THIS POINT





 NUMBER OF WARNING MESSAGES ENCOUNTERED=          2
 NUMBER OF ERROR   MESSAGES ENCOUNTERED=          1



 ***** PROBLEM TERMINATED BY INDICATED ERROR(S) OR BY END OF INPUT DATA *****

+--------------------- A N S Y S   S T A T I S T I C S ------------------------+

Release: Release 16.2       Build: 16.2       Update: UP20150629   Platform: WINDOWS x64 
Date Run: 04/11/2020   Time: 13:59
Windows Process ID:        25316

Processor Model: Intel(R) Core(TM) i5-7200U CPU @ 2.50GHz

Compiler: Intel(R) FORTRAN Compiler Version 14.0.0  (Build: 20140422)
          Intel(R) C/C++ Compiler Version 14.0.0  (Build: 20140422)
          Intel(R) Math Kernel Library Version 11.1.3 Product Build 20140917

Total number of cores available         :    4
Number of physical cores available      :    2
Number of processes requested           :    1
Number of threads per process requested :    2
Total number of cores requested         :    2 (Shared Memory Parallel)                    

GPU Acceleration: Not Requested

Job Name: file
Working Directory: X:\Flexible_Pendulum\Ansys_Structural_Analysis\_ProjectScratch\ScrA457

Total CPU time for main thread                    :     7690.8 seconds
Total CPU time summed for all threads             :    15424.1 seconds

Elapsed time spent pre-processing model (/PREP7)  :        0.3 seconds
Elapsed time spent solution - preprocessing       :        0.3 seconds
Elapsed time spent computing solution             :     8504.8 seconds
Elapsed time spent solution - postprocessing      :        0.0 seconds
Elapsed time spent post-processing model (/POST1) :        0.0 seconds

Equation solver computational rate                :     4736.6 Mflops

Maximum total memory used                         :      213.0 MB
Maximum total memory allocated                    :     2112.0 MB
Maximum total memory available                    :         16 GB

+------------------ E N D   A N S Y S   S T A T I S T I C S -------------------+


 *---------------------------------------------------------------------------*
 |                                                                           |
 |                            ANSYS RUN COMPLETED                            |
 |                                                                           |
 |---------------------------------------------------------------------------|
 |                                                                           |
 | Ansys Release 16.2          Build 16.2         UP20150629     WINDOWS x64 |
 |                                                                           |
 |---------------------------------------------------------------------------|
 |                                                                           |
 | Database Requested(-db)  1024 MB    Scratch Memory Requested      1024 MB |
 | Maximum Database Used      30 MB    Maximum Scratch Memory Used    183 MB |
 |                                                                           |
 |---------------------------------------------------------------------------|
 |                                                                           |
 |        CP Time      (sec) =      15424.141       Time  =  13:59:36        |
 |        Elapsed Time (sec) =       8516.000       Date  =  04/11/2020      |
 |                                                                           |
 *---------------------------------------------------------------------------*
